
##########                                Name:     oleObject80.pdb
##########                DOCK_Rotatable_Bonds:                  14
##########                         Heavy_Atoms:                  51
##########                    Molecular_Weight:             703.283
##########                DOCK_Rotatable_Bonds:                  14
##########                       Formal_Charge:         0.000299793
##########                     HBond_Acceptors:                  10
##########                        HBond_Donors:                   3
##########                         Heavy_Atoms:                  51
##########                          Grid_Score:          -46.096413
##########                     Grid_vdw_energy:          -45.772461
##########                      Grid_es_energy:           -0.323951
##########           Internal_energy_repulsive:           90.991554

@<TRIPOS>MOLECULE
oleObject80.pdb
 94 99 1 0 0
SMALL
NO_CHARGES


@<TRIPOS>ATOM
      1 C         -16.4672   -2.0204   56.7312 C.ar    1  UNL        -0.0620
      2 C         -16.2028   -0.7894   56.1144 C.ar    1  UNL        -0.0590
      3 C         -15.0129   -0.0874   56.3887 C.ar    1  UNL        -0.0456
      4 C         -14.0707   -0.6294   57.2996 C.ar    1  UNL        -0.0185
      5 C         -14.3514   -1.8717   57.9110 C.ar    1  UNL        -0.0565
      6 C         -15.5393   -2.5621   57.6295 C.ar    1  UNL        -0.0619
      7 C         -12.7659    0.1195   57.6252 C.3     1  UNL         0.0931
      8 C         -12.3983    0.1068   59.1197 C.ar    1  UNL         0.0683
      9 C         -11.3877   -0.7479   59.6283 C.ar    1  UNL        -0.0272
     10 C         -11.1090   -0.7104   61.0075 C.ar    1  UNL        -0.0559
     11 C         -11.8310    0.1684   61.8277 C.ar    1  UNL        -0.0435
     12 C         -12.8076    0.9856   61.2404 C.ar    1  UNL         0.0272
     13 N         -13.0814    0.9570   59.9228 N.ar    1  UNL        -0.2587
     14 C         -10.5982   -1.6977   58.7342 C.3     1  UNL        -0.0379
     15 N         -11.6250   -0.2299   56.7303 N.am    1  UNL        -0.2918
     16 C         -10.6287    0.7118   56.4489 C.2     1  UNL         0.2180
     17 O         -10.5231    1.7257   57.1197 O.2     1  UNL        -0.2772
     18 C          -9.4798    0.2658   55.5100 C.3     1  UNL         0.0385
     19 C          -8.2154    1.1430   55.6831 C.3     1  UNL        -0.0289
     20 C          -8.4010    2.5465   55.0710 C.3     1  UNL        -0.0010
     21 N          -8.7535    2.4732   53.6369 N.4     1  UNL        -0.3010
     22 C          -9.9669    1.6615   53.3774 C.3     1  UNL        -0.0010
     23 C          -9.8897    0.2502   54.0133 C.3     1  UNL        -0.0289
     24 C          -8.7791    3.8166   53.0169 C.3     1  UNL         0.0222
     25 C          -9.0555    3.7886   51.4995 C.3     1  UNL         0.0661
     26 O          -7.9765    4.4790   50.8444 O.3     1  UNL        -0.3432
     27 C          -6.7041    3.9569   50.7126 C.ar    1  UNL         0.0937
     28 C          -6.4753    2.6559   50.2204 C.ar    1  UNL        -0.0284
     29 C          -5.1648    2.1641   50.1043 C.ar    1  UNL        -0.0381
     30 C          -4.0640    2.9617   50.4615 C.ar    1  UNL         0.0319
     31 C          -4.2955    4.2530   50.9737 C.ar    1  UNL        -0.0194
     32 C          -5.6040    4.7493   51.0934 C.ar    1  UNL         0.0727
     33 CL         -5.8394    6.3653   51.7331 Cl      1  UNL        -0.0814
     34 N          -2.7822    2.4268   50.3464 N.pl3   1  UNL        -0.3136
     35 C          -2.0090    2.1046   49.2315 C.ar    1  UNL         0.0489
     36 C          -2.6007    2.0949   47.9560 C.ar    1  UNL         0.0488
     37 N          -1.9198    1.8132   46.8273 N.ar    1  UNL        -0.2543
     38 C          -0.5984    1.5367   46.8863 C.ar    1  UNL         0.0703
     39 C           0.0773    1.5440   48.1342 C.ar    1  UNL        -0.0339
     40 C          -0.6306    1.8345   49.3115 C.ar    1  UNL        -0.0371
     41 C           0.0946    1.2377   45.5836 C.ar    1  UNL         0.0009
     42 C          -0.5232    0.4531   44.5749 C.ar    1  UNL        -0.0402
     43 C           0.1157    0.1654   43.3506 C.ar    1  UNL         0.0375
     44 C           1.4114    0.6749   43.1256 C.ar    1  UNL        -0.0496
     45 C           2.0479    1.4484   44.1062 C.ar    1  UNL        -0.0608
     46 C           1.4003    1.7246   45.3188 C.ar    1  UNL        -0.0528
     47 C          -0.5988   -0.6772   42.3218 C.2     1  UNL         0.2403
     48 O          -1.6635   -1.2231   42.5495 O.2     1  UNL        -0.2722
     49 N          -0.0016   -0.8158   41.0867 N.am    1  UNL        -0.3251
     50 C         -11.5564   -1.6225   56.2330 C.3     1  UNL         0.0037
     51 C         -14.7773    1.2458   55.6845 C.3     1  UNL        -0.0394
     52 H         -17.3879   -2.5533   56.5115 H       1  UNL         0.0623
     53 H         -16.9290   -0.3799   55.4179 H       1  UNL         0.0626
     54 H         -13.6462   -2.3182   58.6049 H       1  UNL         0.0627
     55 H         -15.7386   -3.5172   58.1072 H       1  UNL         0.0623
     56 H         -12.9950    1.1669   57.4133 H       1  UNL         0.0626
     57 H         -10.3449   -1.3516   61.4379 H       1  UNL         0.0627
     58 H         -11.6364    0.2174   62.8950 H       1  UNL         0.0639
     59 H         -13.3886    1.6838   61.8415 H       1  UNL         0.0840
     60 H         -11.2433   -2.4922   58.3387 H       1  UNL         0.0280
     61 H          -9.7794   -2.1812   59.2813 H       1  UNL         0.0280
     62 H         -10.1524   -1.1658   57.8846 H       1  UNL         0.0280
     63 H          -9.2218   -0.7672   55.7708 H       1  UNL         0.0402
     64 H          -7.3676    0.6522   55.1878 H       1  UNL         0.0288
     65 H          -7.9452    1.2353   56.7405 H       1  UNL         0.0288
     66 H          -7.4661    3.1077   55.1976 H       1  UNL         0.0431
     67 H          -9.1865    3.0804   55.6231 H       1  UNL         0.0431
     68 H         -10.1166    1.5333   52.2989 H       1  UNL         0.0431
     69 H         -10.8467    2.1889   53.7663 H       1  UNL         0.0431
     70 H          -9.1475   -0.3354   53.4554 H       1  UNL         0.0288
     71 H         -10.8496   -0.2674   53.8902 H       1  UNL         0.0288
     72 H          -7.8064    4.3022   53.1694 H       1  UNL         0.0455
     73 H          -9.5387    4.4394   53.5072 H       1  UNL         0.0455
     74 H         -10.0076    4.2864   51.2791 H       1  UNL         0.0586
     75 H          -9.1042    2.7472   51.1566 H       1  UNL         0.0586
     76 H          -7.3016    2.0167   49.9271 H       1  UNL         0.0652
     77 H          -5.0038    1.1590   49.7244 H       1  UNL         0.0644
     78 H          -3.4656    4.8711   51.3015 H       1  UNL         0.0659
     79 H          -2.3342    2.2290   51.2321 H       1  UNL         0.1528
     80 H          -3.6611    2.3115   47.8334 H       1  UNL         0.0861
     81 H           1.1361    1.3194   48.2011 H       1  UNL         0.0646
     82 H          -0.1061    1.8652   50.2614 H       1  UNL         0.0644
     83 H          -1.5117    0.0425   44.7489 H       1  UNL         0.0638
     84 H           1.9375    0.4774   42.1969 H       1  UNL         0.0631
     85 H           3.0464    1.8369   43.9261 H       1  UNL         0.0623
     86 H           1.9182    2.3324   46.0552 H       1  UNL         0.0630
     87 H          -0.4463   -1.3715   40.3685 H       1  UNL         0.1458
     88 H           0.8819   -0.3533   40.9141 H       1  UNL         0.1458
     89 H         -12.4591   -2.1897   56.4831 H       1  UNL         0.0433
     90 H         -10.7016   -2.1421   56.6812 H       1  UNL         0.0433
     91 H         -11.4418   -1.6163   55.1419 H       1  UNL         0.0433
     92 H         -15.5896    1.4860   54.9874 H       1  UNL         0.0280
     93 H         -13.8476    1.2293   55.1030 H       1  UNL         0.0280
     94 H         -14.7143    2.0702   56.4055 H       1  UNL         0.0280
@<TRIPOS>BOND
     1     1     2   ar
     2     1     6   ar
     3     1    52    1
     4     2     3   ar
     5     2    53    1
     6     3     4   ar
     7     3    51    1
     8     4     5   ar
     9     4     7    1
    10     5     6   ar
    11     5    54    1
    12     6    55    1
    13     7     8    1
    14     7    15    1
    15     7    56    1
    16     8     9   ar
    17     8    13   ar
    18     9    10   ar
    19     9    14    1
    20    10    11   ar
    21    10    57    1
    22    11    12   ar
    23    11    58    1
    24    12    13   ar
    25    12    59    1
    26    14    60    1
    27    14    61    1
    28    14    62    1
    29    15    16   am
    30    15    50    1
    31    16    17    2
    32    16    18    1
    33    18    19    1
    34    18    23    1
    35    18    63    1
    36    19    20    1
    37    19    64    1
    38    19    65    1
    39    20    21    1
    40    20    66    1
    41    20    67    1
    42    21    22    1
    43    21    24    1
    44    22    23    1
    45    22    68    1
    46    22    69    1
    47    23    70    1
    48    23    71    1
    49    24    25    1
    50    24    72    1
    51    24    73    1
    52    25    26    1
    53    25    74    1
    54    25    75    1
    55    26    27    1
    56    27    28   ar
    57    27    32   ar
    58    28    29   ar
    59    28    76    1
    60    29    30   ar
    61    29    77    1
    62    30    31   ar
    63    30    34    1
    64    31    32   ar
    65    31    78    1
    66    32    33    1
    67    34    35    1
    68    34    79    1
    69    35    36   ar
    70    35    40   ar
    71    36    37   ar
    72    36    80    1
    73    37    38   ar
    74    38    39   ar
    75    38    41    1
    76    39    40   ar
    77    39    81    1
    78    40    82    1
    79    41    42   ar
    80    41    46   ar
    81    42    43   ar
    82    42    83    1
    83    43    44   ar
    84    43    47    1
    85    44    45   ar
    86    44    84    1
    87    45    46   ar
    88    45    85    1
    89    46    86    1
    90    47    48    2
    91    47    49   am
    92    49    87    1
    93    49    88    1
    94    50    89    1
    95    50    90    1
    96    50    91    1
    97    51    92    1
    98    51    93    1
    99    51    94    1
@<TRIPOS>SUBSTRUCTURE
     1 UNL         1 TEMP              0 ****  ****    0 ROOT


##########                                Name:    ZINC001591898574
##########                DOCK_Rotatable_Bonds:                  10
##########                         Heavy_Atoms:                  26
##########                    Molecular_Weight:             383.434
##########                DOCK_Rotatable_Bonds:                  10
##########                       Formal_Charge:         5.96046e-08
##########                     HBond_Acceptors:                  13
##########                        HBond_Donors:                   3
##########                         Heavy_Atoms:                  26
##########                          Grid_Score:          -43.147339
##########                     Grid_vdw_energy:          -41.198208
##########                      Grid_es_energy:           -1.949132
##########           Internal_energy_repulsive:            8.441923

@<TRIPOS>MOLECULE
ZINC001591898574
 47 48 1 0 0
SMALL
USER_CHARGES


@<TRIPOS>ATOM
      1 C1          0.7392    0.4564   49.4722 C.3     1  ZINC001591898574   -0.1100
      2 C2         -0.3919    0.8618   48.5626 C.ar    1  ZINC001591898574    0.2300
      3 C3         -0.3645    0.5266   47.2205 C.ar    1  ZINC001591898574   -0.2400
      4 C4         -1.4341    0.9222   46.4137 C.ar    1  ZINC001591898574    0.3000
      5 C5         -1.4518    0.5867   44.9682 C.2     1  ZINC001591898574    0.2100
      6 N6         -0.4060    0.4711   44.1738 N.2     1  ZINC001591898574   -0.2500
      7 N7         -0.8362    0.1700   42.9969 N.pl3   1  ZINC001591898574   -0.2200
      8 N8         -2.1209    0.0912   43.0202 N.2     1  ZINC001591898574   -0.0400
      9 N9         -2.5339    0.3365   44.2173 N.2     1  ZINC001591898574   -0.2500
     10 N10        -2.4371    1.6041   46.9610 N.ar    1  ZINC001591898574   -0.5500
     11 C11        -2.4239    1.9042   48.2504 C.ar    1  ZINC001591898574    0.5800
     12 N12        -3.4830    2.6147   48.7882 N.pl3   1  ZINC001591898574   -0.7000
     13 C13        -3.5351    2.8733   50.2293 C.3     1  ZINC001591898574    0.1400
     14 C14        -4.9686    3.2240   50.6330 C.3     1  ZINC001591898574   -0.1500
     15 C15        -5.8172    1.9510   50.6582 C.3     1  ZINC001591898574    0.1200
     16 N16        -7.0891    2.2253   51.3313 N.am    1  ZINC001591898574   -0.7300
     17 C17        -7.6825    1.2652   52.0678 C.2     1  ZINC001591898574    0.4900
     18 O18        -7.1627    0.1745   52.1746 O.2     1  ZINC001591898574   -0.5300
     19 C19        -8.9918    1.5467   52.7588 C.3     1  ZINC001591898574    0.1000
     20 N20        -9.2292    0.5313   53.7878 N.am    1  ZINC001591898574   -0.9800
     21 C21        -8.5827    0.6499   55.0971 C.3     1  ZINC001591898574    0.1000
     22 S22       -10.2283   -0.7508   53.4709 S.o2    1  ZINC001591898574    2.6100
     23 C23       -11.8311    0.0081   53.0892 C.3     1  ZINC001591898574   -0.6600
     24 O24        -9.6713   -1.3505   52.3093 O.2     1  ZINC001591898574   -0.9500
     25 O25       -10.2920   -1.4581   54.7018 O.2     1  ZINC001591898574   -0.9600
     26 N26        -1.4250    1.5376   49.0401 N.ar    1  ZINC001591898574   -0.5600
     27 H27         0.5293   -0.5249   49.8978 H       1  ZINC001591898574    0.0900
     28 H28         1.6670    0.4139   48.9016 H       1  ZINC001591898574    0.0900
     29 H29         0.8395    1.1868   50.2750 H       1  ZINC001591898574    0.0900
     30 H30         0.4648   -0.0275   46.8061 H       1  ZINC001591898574    0.1600
     31 H31        -0.2793    0.0255   42.2160 H       1  ZINC001591898574    0.4800
     32 H32        -4.1907    2.9415   48.2110 H       1  ZINC001591898574    0.4200
     33 H33        -3.2127    1.9833   50.7699 H       1  ZINC001591898574    0.0700
     34 H34        -2.8749    3.7056   50.4732 H       1  ZINC001591898574    0.0700
     35 H35        -4.9663    3.6787   51.6235 H       1  ZINC001591898574    0.0800
     36 H36        -5.3877    3.9257   49.9119 H       1  ZINC001591898574    0.0800
     37 H37        -6.0100    1.6226   49.6369 H       1  ZINC001591898574    0.0700
     38 H38        -5.2824    1.1685   51.1966 H       1  ZINC001591898574    0.0700
     39 H39        -7.5042    3.0979   51.2470 H       1  ZINC001591898574    0.4000
     40 H40        -8.9531    2.5321   53.2230 H       1  ZINC001591898574    0.1200
     41 H41        -9.8009    1.5204   52.0289 H       1  ZINC001591898574    0.1300
     42 H42        -9.2249    1.2191   55.7692 H       1  ZINC001591898574    0.0600
     43 H43        -8.4143   -0.3443   55.5106 H       1  ZINC001591898574    0.0700
     44 H44        -7.6278    1.1635   54.9855 H       1  ZINC001591898574    0.0700
     45 H45       -11.7257    0.6649   52.2258 H       1  ZINC001591898574    0.1300
     46 H46       -12.5585   -0.7724   52.8654 H       1  ZINC001591898574    0.1200
     47 H47       -12.1724    0.5875   53.9470 H       1  ZINC001591898574    0.1300
@<TRIPOS>BOND
     1     1     2    1
     2     1    27    1
     3     1    28    1
     4     1    29    1
     5     2    26   ar
     6     2     3   ar
     7     3     4   ar
     8     3    30    1
     9     4     5    1
    10     4    10   ar
    11     5     9    1
    12     5     6    2
    13     6     7    1
    14     7     8    1
    15     7    31    1
    16     8     9    2
    17    10    11   ar
    18    11    12    1
    19    11    26   ar
    20    12    13    1
    21    12    32    1
    22    13    14    1
    23    13    33    1
    24    13    34    1
    25    14    15    1
    26    14    35    1
    27    14    36    1
    28    15    16    1
    29    15    37    1
    30    15    38    1
    31    16    17   am
    32    16    39    1
    33    17    18    2
    34    17    19    1
    35    19    20    1
    36    19    40    1
    37    19    41    1
    38    20    21    1
    39    20    22   am
    40    21    42    1
    41    21    43    1
    42    21    44    1
    43    22    23    1
    44    22    24    2
    45    22    25    2
    46    23    45    1
    47    23    46    1
    48    23    47    1
@<TRIPOS>SUBSTRUCTURE
     1 ZINC001591898574        1 TEMP              0 ****  ****    0 ROOT


##########                                Name:     oleObject42.pdb
##########                DOCK_Rotatable_Bonds:                   9
##########                         Heavy_Atoms:                  36
##########                    Molecular_Weight:             527.493
##########                DOCK_Rotatable_Bonds:                   9
##########                       Formal_Charge:         9.99384e-05
##########                     HBond_Acceptors:                   8
##########                        HBond_Donors:                   0
##########                         Heavy_Atoms:                  36
##########                          Grid_Score:          -42.240181
##########                     Grid_vdw_energy:          -41.620865
##########                      Grid_es_energy:           -0.619318
##########           Internal_energy_repulsive:           27.267647

@<TRIPOS>MOLECULE
oleObject42.pdb
 68 71 1 0 0
SMALL
NO_CHARGES


@<TRIPOS>ATOM
      1 C          -1.3062   -0.0949   42.9421 C.ar    1  UNL        -0.0435
      2 C           0.0308   -0.0069   42.5283 C.ar    1  UNL        -0.0559
      3 C           0.9961    0.4874   43.4258 C.ar    1  UNL        -0.0272
      4 C           0.5740    0.8797   44.7211 C.ar    1  UNL         0.0699
      5 N          -0.7201    0.7896   45.1075 N.ar    1  UNL        -0.2586
      6 C          -1.6357    0.3151   44.2423 C.ar    1  UNL         0.0272
      7 C           1.5649    1.4283   45.7620 C.3     1  UNL         0.1101
      8 C           2.0162    2.8728   45.4707 C.ar    1  UNL         0.0699
      9 C           3.3614    3.2779   45.6612 C.ar    1  UNL        -0.0272
     10 C           3.7042    4.6152   45.3864 C.ar    1  UNL        -0.0559
     11 C           2.7109    5.4974   44.9378 C.ar    1  UNL        -0.0435
     12 C           1.4040    5.0134   44.7800 C.ar    1  UNL         0.0272
     13 N           1.0663    3.7369   45.0414 N.ar    1  UNL        -0.2586
     14 C           4.4389    2.3160   46.1500 C.3     1  UNL        -0.0379
     15 N           1.1166    1.1961   47.1631 N.am    1  UNL        -0.2902
     16 C           0.3422    2.1138   47.8741 C.2     1  UNL         0.2180
     17 O           0.2179    3.2580   47.4692 O.2     1  UNL        -0.2772
     18 C          -0.0481    1.7344   49.3237 C.3     1  UNL         0.0385
     19 C          -1.2825    0.8010   49.3487 C.3     1  UNL        -0.0289
     20 C          -2.5936    1.5572   49.0452 C.3     1  UNL        -0.0010
     21 N          -2.7829    2.7019   49.9623 N.4     1  UNL        -0.3010
     22 C          -1.6577    3.6629   49.9632 C.3     1  UNL        -0.0010
     23 C          -0.2978    2.9719   50.2253 C.3     1  UNL        -0.0289
     24 C          -4.1163    3.3362   49.8659 C.3     1  UNL         0.0222
     25 C          -5.2907    2.3825   50.1797 C.3     1  UNL         0.0661
     26 O          -5.1539    1.9493   51.5421 O.3     1  UNL        -0.3432
     27 C          -6.1958    1.2791   52.1346 C.ar    1  UNL         0.0937
     28 C          -6.5842    0.0302   51.6211 C.ar    1  UNL        -0.0288
     29 C          -7.6489   -0.6721   52.2097 C.ar    1  UNL        -0.0408
     30 C          -8.3267   -0.1223   53.3106 C.ar    1  UNL         0.0422
     31 C          -7.9442    1.1287   53.8232 C.ar    1  UNL        -0.0221
     32 C          -6.8793    1.8326   53.2360 C.ar    1  UNL         0.0723
     33 CL         -6.4246    3.3946   53.8913 Cl      1  UNL        -0.0814
     34 CL         -9.6539   -0.9971   54.0442 Cl      1  UNL        -0.0843
     35 C           1.6687    0.0065   47.8420 C.3     1  UNL         0.0038
     36 C           2.4512    0.5808   42.9798 C.3     1  UNL        -0.0379
     37 H          -2.0711   -0.4737   42.2706 H       1  UNL         0.0639
     38 H           0.3113   -0.3198   41.5264 H       1  UNL         0.0627
     39 H          -2.6620    0.2620   44.6035 H       1  UNL         0.0840
     40 H           2.4663    0.8216   45.6423 H       1  UNL         0.0643
     41 H           4.7240    4.9663   45.5170 H       1  UNL         0.0627
     42 H           2.9476    6.5340   44.7170 H       1  UNL         0.0639
     43 H           0.6030    5.6653   44.4340 H       1  UNL         0.0840
     44 H           4.2192    1.9583   47.1635 H       1  UNL         0.0280
     45 H           5.4250    2.7960   46.1795 H       1  UNL         0.0280
     46 H           4.5224    1.4437   45.4901 H       1  UNL         0.0280
     47 H           0.7891    1.1948   49.7781 H       1  UNL         0.0402
     48 H          -1.3635    0.3432   50.3431 H       1  UNL         0.0288
     49 H          -1.1561   -0.0206   48.6338 H       1  UNL         0.0288
     50 H          -3.4340    0.8580   49.1437 H       1  UNL         0.0431
     51 H          -2.5699    1.9067   48.0051 H       1  UNL         0.0431
     52 H          -1.8193    4.4223   50.7390 H       1  UNL         0.0431
     53 H          -1.6125    4.1861   49.0009 H       1  UNL         0.0431
     54 H          -0.2751    2.6487   51.2741 H       1  UNL         0.0288
     55 H           0.5186    3.6955   50.1047 H       1  UNL         0.0288
     56 H          -4.2541    3.7386   48.8541 H       1  UNL         0.0455
     57 H          -4.1629    4.1856   50.5596 H       1  UNL         0.0455
     58 H          -5.2631    1.5166   49.5069 H       1  UNL         0.0586
     59 H          -6.2478    2.9013   50.0452 H       1  UNL         0.0586
     60 H          -6.0595   -0.3916   50.7687 H       1  UNL         0.0652
     61 H          -7.9472   -1.6383   51.8127 H       1  UNL         0.0639
     62 H          -8.4724    1.5521   54.6727 H       1  UNL         0.0655
     63 H           1.8510   -0.7998   47.1205 H       1  UNL         0.0433
     64 H           0.9589   -0.3586   48.5950 H       1  UNL         0.0433
     65 H           2.6124    0.2685   48.3365 H       1  UNL         0.0433
     66 H           2.5870    0.1944   41.9620 H       1  UNL         0.0280
     67 H           3.1071   -0.0024   43.6375 H       1  UNL         0.0280
     68 H           2.7997    1.6206   42.9827 H       1  UNL         0.0280
@<TRIPOS>BOND
     1     1     2   ar
     2     1     6   ar
     3     1    37    1
     4     2     3   ar
     5     2    38    1
     6     3     4   ar
     7     3    36    1
     8     4     5   ar
     9     4     7    1
    10     5     6   ar
    11     6    39    1
    12     7     8    1
    13     7    15    1
    14     7    40    1
    15     8     9   ar
    16     8    13   ar
    17     9    10   ar
    18     9    14    1
    19    10    11   ar
    20    10    41    1
    21    11    12   ar
    22    11    42    1
    23    12    13   ar
    24    12    43    1
    25    14    44    1
    26    14    45    1
    27    14    46    1
    28    15    16   am
    29    15    35    1
    30    16    17    2
    31    16    18    1
    32    18    19    1
    33    18    23    1
    34    18    47    1
    35    19    20    1
    36    19    48    1
    37    19    49    1
    38    20    21    1
    39    20    50    1
    40    20    51    1
    41    21    22    1
    42    21    24    1
    43    22    23    1
    44    22    52    1
    45    22    53    1
    46    23    54    1
    47    23    55    1
    48    24    25    1
    49    24    56    1
    50    24    57    1
    51    25    26    1
    52    25    58    1
    53    25    59    1
    54    26    27    1
    55    27    28   ar
    56    27    32   ar
    57    28    29   ar
    58    28    60    1
    59    29    30   ar
    60    29    61    1
    61    30    31   ar
    62    30    34    1
    63    31    32   ar
    64    31    62    1
    65    32    33    1
    66    35    63    1
    67    35    64    1
    68    35    65    1
    69    36    66    1
    70    36    67    1
    71    36    68    1
@<TRIPOS>SUBSTRUCTURE
     1 UNL         1 TEMP              0 ****  ****    0 ROOT


##########                                Name:    ZINC000552360217
##########                DOCK_Rotatable_Bonds:                  13
##########                         Heavy_Atoms:                  27
##########                    Molecular_Weight:             401.484
##########                DOCK_Rotatable_Bonds:                  13
##########                       Formal_Charge:          -0.0100002
##########                     HBond_Acceptors:                  10
##########                        HBond_Donors:                   3
##########                         Heavy_Atoms:                  27
##########                          Grid_Score:          -42.203899
##########                     Grid_vdw_energy:          -42.118195
##########                      Grid_es_energy:           -0.085705
##########           Internal_energy_repulsive:           19.429123

@<TRIPOS>MOLECULE
ZINC000552360217
 54 54 1 0 0
SMALL
USER_CHARGES


@<TRIPOS>ATOM
      1 C1          1.0497    0.8506   43.8764 C.3     1  ZINC000552360217    0.0800
      2 N2         -0.3300    0.4254   43.6272 N.am    1  ZINC000552360217   -1.0000
      3 C3         -0.6428   -0.3970   42.4559 C.3     1  ZINC000552360217    0.0900
      4 S4         -1.5358    0.8742   44.6698 S.o2    1  ZINC000552360217    2.7000
      5 O5         -1.4605    2.2885   44.7852 O.2     1  ZINC000552360217   -0.9500
      6 O6         -2.7073    0.1901   44.2467 O.2     1  ZINC000552360217   -0.9500
      7 C7         -1.1243    0.2231   46.2544 C.ar    1  ZINC000552360217   -0.6900
      8 C8         -1.1742   -1.1419   46.4740 C.ar    1  ZINC000552360217    0.0100
      9 C9         -0.8521   -1.6614   47.7155 C.ar    1  ZINC000552360217   -0.1400
     10 C10        -0.4790   -0.8202   48.7429 C.ar    1  ZINC000552360217   -0.0300
     11 C11        -0.4265    0.5581   48.5281 C.ar    1  ZINC000552360217   -0.1600
     12 C12        -0.0270    1.4657   49.6246 C.2     1  ZINC000552360217    0.5600
     13 O13         0.7282    1.0743   50.4930 O.2     1  ZINC000552360217   -0.5300
     14 N14        -0.5001    2.7271   49.6615 N.am    1  ZINC000552360217   -0.7100
     15 C15        -0.1029    3.6271   50.7472 C.3     1  ZINC000552360217    0.1000
     16 C16        -1.2276    4.5857   51.0421 C.2     1  ZINC000552360217    0.5100
     17 O17        -1.0309    5.7818   51.0031 O.2     1  ZINC000552360217   -0.5400
     18 N18        -2.4522    4.1138   51.3493 N.am    1  ZINC000552360217   -0.7200
     19 C19        -3.5460    5.0457   51.6344 C.3     1  ZINC000552360217    0.1400
     20 C20        -4.8847    4.3170   51.5006 C.3     1  ZINC000552360217    0.1000
     21 C21        -5.1781    3.5488   52.7908 C.3     1  ZINC000552360217   -0.1800
     22 C22        -5.9975    5.3365   51.2497 C.3     1  ZINC000552360217   -0.1800
     23 O23        -4.8213    3.4016   50.4052 O.3     1  ZINC000552360217   -0.3700
     24 C24        -5.9716    2.5630   50.2812 C.3     1  ZINC000552360217    0.0600
     25 C25        -5.6290    1.1524   50.7648 C.3     1  ZINC000552360217    0.0800
     26 O26        -6.7848    0.3187   50.6587 O.3     1  ZINC000552360217   -0.5700
     27 C27        -0.7475    1.0752   47.2722 C.ar    1  ZINC000552360217    0.0400
     28 H28         1.2297    1.8065   43.3845 H       1  ZINC000552360217    0.0600
     29 H29         1.2085    0.9585   44.9494 H       1  ZINC000552360217    0.0900
     30 H30         1.7374    0.1031   43.4807 H       1  ZINC000552360217    0.0800
     31 H31         0.2704   -0.5896   41.8927 H       1  ZINC000552360217    0.0800
     32 H32        -1.0753   -1.3431   42.7812 H       1  ZINC000552360217    0.0700
     33 H33        -1.3562    0.1298   41.8222 H       1  ZINC000552360217    0.0600
     34 H34        -1.4661   -1.8049   45.6729 H       1  ZINC000552360217    0.1500
     35 H35        -0.8934   -2.7280   47.8803 H       1  ZINC000552360217    0.1400
     36 H36        -0.2282   -1.2269   49.7114 H       1  ZINC000552360217    0.1400
     37 H37        -1.1038    3.0393   48.9693 H       1  ZINC000552360217    0.4100
     38 H38         0.1201    3.0429   51.6401 H       1  ZINC000552360217    0.1000
     39 H39         0.7833    4.1873   50.4488 H       1  ZINC000552360217    0.1000
     40 H40        -2.6091    3.1572   51.3817 H       1  ZINC000552360217    0.4100
     41 H41        -3.4411    5.4297   52.6491 H       1  ZINC000552360217    0.0800
     42 H42        -3.5110    5.8743   50.9269 H       1  ZINC000552360217    0.0900
     43 H43        -5.2265    4.2470   53.6264 H       1  ZINC000552360217    0.0700
     44 H44        -6.1318    3.0296   52.6955 H       1  ZINC000552360217    0.0700
     45 H45        -4.3854    2.8224   52.9697 H       1  ZINC000552360217    0.0700
     46 H46        -5.7884    5.8838   50.3305 H       1  ZINC000552360217    0.0600
     47 H47        -6.9512    4.8173   51.1544 H       1  ZINC000552360217    0.0700
     48 H48        -6.0458    6.0347   52.0853 H       1  ZINC000552360217    0.0700
     49 H49        -6.7831    2.9674   50.8862 H       1  ZINC000552360217    0.0600
     50 H50        -6.2818    2.5236   49.2369 H       1  ZINC000552360217    0.0700
     51 H51        -4.8275    0.7423   50.1504 H       1  ZINC000552360217    0.0600
     52 H52        -5.3049    1.1936   51.8047 H       1  ZINC000552360217    0.0500
     53 H53        -6.6403   -0.5925   50.9483 H       1  ZINC000552360217    0.3800
     54 H54        -0.7089    2.1406   47.0996 H       1  ZINC000552360217    0.1500
@<TRIPOS>BOND
     1     1     2    1
     2     1    28    1
     3     1    29    1
     4     1    30    1
     5     2     3    1
     6     2     4   am
     7     3    31    1
     8     3    32    1
     9     3    33    1
    10     4     5    2
    11     4     6    2
    12     4     7    1
    13     7    27   ar
    14     7     8   ar
    15     8     9   ar
    16     8    34    1
    17     9    10   ar
    18     9    35    1
    19    10    11   ar
    20    10    36    1
    21    11    12    1
    22    11    27   ar
    23    12    13    2
    24    12    14   am
    25    14    15    1
    26    14    37    1
    27    15    16    1
    28    15    38    1
    29    15    39    1
    30    16    17    2
    31    16    18   am
    32    18    19    1
    33    18    40    1
    34    19    20    1
    35    19    41    1
    36    19    42    1
    37    20    21    1
    38    20    22    1
    39    20    23    1
    40    21    43    1
    41    21    44    1
    42    21    45    1
    43    22    46    1
    44    22    47    1
    45    22    48    1
    46    23    24    1
    47    24    25    1
    48    24    49    1
    49    24    50    1
    50    25    26    1
    51    25    51    1
    52    25    52    1
    53    26    53    1
    54    27    54    1
@<TRIPOS>SUBSTRUCTURE
     1 ZINC000552360217        1 TEMP              0 ****  ****    0 ROOT


##########                                Name:    ZINC000046390957
##########                DOCK_Rotatable_Bonds:                   9
##########                         Heavy_Atoms:                  29
##########                    Molecular_Weight:             408.521
##########                DOCK_Rotatable_Bonds:                   9
##########                       Formal_Charge:           0.0100005
##########                     HBond_Acceptors:                   6
##########                        HBond_Donors:                   1
##########                         Heavy_Atoms:                  29
##########                          Grid_Score:          -41.223675
##########                     Grid_vdw_energy:          -39.477135
##########                      Grid_es_energy:           -1.746541
##########           Internal_energy_repulsive:           15.929975

@<TRIPOS>MOLECULE
ZINC000046390957
 53 55 1 0 0
SMALL
USER_CHARGES


@<TRIPOS>ATOM
      1 C1         -7.1886    2.6993   55.0336 C.3     1  ZINC000046390957   -0.1100
      2 C2         -7.7023    1.5506   54.2044 C.ar    1  ZINC000046390957   -0.0600
      3 C3         -8.8719    0.9087   54.5618 C.ar    1  ZINC000046390957   -0.1200
      4 C4         -9.3437   -0.1457   53.8019 C.ar    1  ZINC000046390957   -0.1100
      5 C5         -8.6470   -0.5607   52.6817 C.ar    1  ZINC000046390957   -0.1200
      6 C6         -7.4771    0.0773   52.3187 C.ar    1  ZINC000046390957   -0.0800
      7 C7         -6.7187   -0.3753   51.0976 C.3     1  ZINC000046390957   -0.1100
      8 C8         -7.0034    1.1400   53.0769 C.ar    1  ZINC000046390957    0.1300
      9 N9         -5.8187    1.7888   52.7115 N.am    1  ZINC000046390957   -0.6800
     10 C10        -5.7982    2.5977   51.6337 C.2     1  ZINC000046390957    0.5200
     11 O11        -6.8066    2.7632   50.9803 O.2     1  ZINC000046390957   -0.4900
     12 C12        -4.5223    3.2965   51.2401 C.3     1  ZINC000046390957    0.0700
     13 H13        -4.7102    3.9384   50.3795 H       1  ZINC000046390957    0.1100
     14 C14        -4.0241    4.1461   52.4110 C.3     1  ZINC000046390957   -0.1700
     15 O15        -3.5154    2.3084   50.8962 O.3     1  ZINC000046390957   -0.3300
     16 C16        -3.0970    2.2831   49.6212 C.2     1  ZINC000046390957    0.4700
     17 O17        -3.8904    2.4306   48.7219 O.2     1  ZINC000046390957   -0.4800
     18 C18        -1.6375    2.0708   49.3112 C.3     1  ZINC000046390957   -0.0300
     19 C19        -1.4982    1.0048   48.2551 C.2     1  ZINC000046390957    0.0800
     20 C20        -1.2140   -0.2682   48.5462 C.2     1  ZINC000046390957   -0.2500
     21 S21        -1.1438   -1.1678   47.0327 S.3     1  ZINC000046390957    0.1300
     22 C22        -1.5036    0.2573   46.1592 C.2     1  ZINC000046390957    0.0600
     23 C23        -1.6347    0.3403   44.6602 C.3     1  ZINC000046390957    0.0000
     24 C24        -0.2880    0.6411   44.0541 C.ar    1  ZINC000046390957   -0.0900
     25 C25         0.6380    1.3843   44.7619 C.ar    1  ZINC000046390957   -0.0900
     26 C26         1.8731    1.6603   44.2060 C.ar    1  ZINC000046390957   -0.1200
     27 C27         2.1825    1.1927   42.9425 C.ar    1  ZINC000046390957   -0.1200
     28 C28         1.2568    0.4486   42.2351 C.ar    1  ZINC000046390957   -0.1200
     29 C29         0.0232    0.1690   42.7927 C.ar    1  ZINC000046390957   -0.1100
     30 N30        -1.6523    1.2502   46.9697 N.2     1  ZINC000046390957   -0.4500
     31 H31        -7.6908    3.6185   54.7318 H       1  ZINC000046390957    0.0800
     32 H32        -7.3889    2.5050   56.0873 H       1  ZINC000046390957    0.0700
     33 H33        -6.1145    2.8054   54.8816 H       1  ZINC000046390957    0.0600
     34 H34        -9.4183    1.2305   55.4361 H       1  ZINC000046390957    0.1300
     35 H35       -10.2580   -0.6465   54.0838 H       1  ZINC000046390957    0.1300
     36 H36        -9.0179   -1.3848   52.0904 H       1  ZINC000046390957    0.1300
     37 H37        -7.0739    0.1733   50.2253 H       1  ZINC000046390957    0.0700
     38 H38        -5.6550   -0.1839   51.2389 H       1  ZINC000046390957    0.0600
     39 H39        -6.8787   -1.4427   50.9454 H       1  ZINC000046390957    0.0700
     40 H40        -5.0122    1.6565   53.2339 H       1  ZINC000046390957    0.4100
     41 H41        -4.7800    4.8879   52.6691 H       1  ZINC000046390957    0.0800
     42 H42        -3.8361    3.5042   53.2716 H       1  ZINC000046390957    0.0800
     43 H43        -3.1013    4.6517   52.1263 H       1  ZINC000046390957    0.0800
     44 H44        -1.2042    3.0022   48.9467 H       1  ZINC000046390957    0.1200
     45 H45        -1.1160    1.7569   50.2153 H       1  ZINC000046390957    0.1300
     46 H46        -1.0553   -0.6739   49.5344 H       1  ZINC000046390957    0.1800
     47 H47        -2.0025   -0.6105   44.2744 H       1  ZINC000046390957    0.1000
     48 H48        -2.3356    1.1335   44.4001 H       1  ZINC000046390957    0.1000
     49 H49         0.3962    1.7497   45.7491 H       1  ZINC000046390957    0.1200
     50 H50         2.5963    2.2416   44.7587 H       1  ZINC000046390957    0.1200
     51 H51         3.1473    1.4089   42.5079 H       1  ZINC000046390957    0.1200
     52 H52         1.4983    0.0835   41.2478 H       1  ZINC000046390957    0.1200
     53 H53        -0.7000   -0.4122   42.2400 H       1  ZINC000046390957    0.1200
@<TRIPOS>BOND
     1     1     2    1
     2     1    31    1
     3     1    32    1
     4     1    33    1
     5     2     8   ar
     6     2     3   ar
     7     3     4   ar
     8     3    34    1
     9     4     5   ar
    10     4    35    1
    11     5     6   ar
    12     5    36    1
    13     6     7    1
    14     6     8   ar
    15     7    37    1
    16     7    38    1
    17     7    39    1
    18     8     9    1
    19     9    10   am
    20     9    40    1
    21    10    11    2
    22    10    12    1
    23    12    13    1
    24    12    14    1
    25    12    15    1
    26    14    41    1
    27    14    42    1
    28    14    43    1
    29    15    16    1
    30    16    17    2
    31    16    18    1
    32    18    19    1
    33    18    44    1
    34    18    45    1
    35    19    30    1
    36    19    20    2
    37    20    21    1
    38    20    46    1
    39    21    22    1
    40    22    23    1
    41    22    30    2
    42    23    24    1
    43    23    47    1
    44    23    48    1
    45    24    29   ar
    46    24    25   ar
    47    25    26   ar
    48    25    49    1
    49    26    27   ar
    50    26    50    1
    51    27    28   ar
    52    27    51    1
    53    28    29   ar
    54    28    52    1
    55    29    53    1
@<TRIPOS>SUBSTRUCTURE
     1 ZINC000046390957        1 TEMP              0 ****  ****    0 ROOT


##########                                Name:    ZINC000428748914
##########                DOCK_Rotatable_Bonds:                  11
##########                         Heavy_Atoms:                  30
##########                    Molecular_Weight:             413.492
##########                DOCK_Rotatable_Bonds:                  11
##########                       Formal_Charge:           0.0199993
##########                     HBond_Acceptors:                   7
##########                        HBond_Donors:                   3
##########                         Heavy_Atoms:                  30
##########                          Grid_Score:          -41.217945
##########                     Grid_vdw_energy:          -41.720863
##########                      Grid_es_energy:            0.502919
##########           Internal_energy_repulsive:           16.111347

@<TRIPOS>MOLECULE
ZINC000428748914
 58 61 1 0 0
SMALL
USER_CHARGES


@<TRIPOS>ATOM
      1 O1         -2.6983    2.7281   50.6257 O.2     1  ZINC000428748914   -0.5900
      2 C2         -3.2192    2.1590   49.6859 C.2     1  ZINC000428748914    0.7000
      3 N3         -4.5269    2.3510   49.4225 N.am    1  ZINC000428748914   -0.7400
      4 C4         -5.3223    3.2409   50.2720 C.3     1  ZINC000428748914    0.1900
      5 C5         -6.0939    2.4216   51.2742 C.ar    1  ZINC000428748914   -0.2000
      6 C6         -6.4160    1.0997   51.0002 C.ar    1  ZINC000428748914   -0.0200
      7 C7         -7.1257    0.3830   51.9481 C.ar    1  ZINC000428748914   -0.1900
      8 C8         -7.4895    1.0070   53.1342 C.ar    1  ZINC000428748914    0.3300
      9 O9         -8.1850    0.3152   54.0716 O.3     1  ZINC000428748914   -0.3000
     10 C10        -8.6596    1.0506   55.2011 C.3     1  ZINC000428748914    0.0800
     11 C11        -9.5153    0.1424   56.1188 C.3     1  ZINC000428748914   -0.1400
     12 C12        -9.4178    0.8541   57.4910 C.3     1  ZINC000428748914   -0.1200
     13 C13        -7.9627    1.3630   57.5507 C.3     1  ZINC000428748914   -0.1200
     14 C14        -7.4807    1.4880   56.0948 C.3     1  ZINC000428748914   -0.1200
     15 N15        -7.1640    2.2693   53.3591 N.ar    1  ZINC000428748914   -0.5400
     16 C16        -6.4832    2.9762   52.4774 C.ar    1  ZINC000428748914    0.1600
     17 N17        -2.4875    1.3403   48.9044 N.am    1  ZINC000428748914   -0.7400
     18 C18        -1.0659    1.1316   49.1907 C.3     1  ZINC000428748914    0.1800
     19 C19        -0.3876    0.5012   47.9727 C.3     1  ZINC000428748914   -0.1300
     20 C20        -0.8737   -0.9004   47.5984 C.3     1  ZINC000428748914    0.1100
     21 O21        -0.7273   -1.7713   48.7220 O.3     1  ZINC000428748914   -0.5700
     22 C22         1.0907    0.8214   47.7429 C.3     1  ZINC000428748914   -0.1400
     23 C23         0.0246    1.4339   46.8322 C.3     1  ZINC000428748914   -0.1000
     24 H24        -0.1873    2.4966   46.9495 H       1  ZINC000428748914    0.1200
     25 C25        -0.0782    0.9019   45.4259 C.ar    1  ZINC000428748914   -0.0700
     26 C26        -1.3056    0.5125   44.9228 C.ar    1  ZINC000428748914   -0.0900
     27 C27        -1.4012    0.0245   43.6334 C.ar    1  ZINC000428748914   -0.1500
     28 C28        -0.2670   -0.0738   42.8452 C.ar    1  ZINC000428748914    0.1000
     29 F29        -0.3593   -0.5503   41.5844 F       1  ZINC000428748914   -0.1400
     30 C30         0.9616    0.3169   43.3500 C.ar    1  ZINC000428748914   -0.1500
     31 C31         1.0539    0.8090   44.6381 C.ar    1  ZINC000428748914   -0.0800
     32 H32        -4.9415    1.9000   48.6704 H       1  ZINC000428748914    0.4000
     33 H33        -4.6601    3.9288   50.7979 H       1  ZINC000428748914    0.0800
     34 H34        -6.0180    3.8078   49.6534 H       1  ZINC000428748914    0.0800
     35 H35        -6.1199    0.6408   50.0684 H       1  ZINC000428748914    0.1400
     36 H36        -7.3935   -0.6476   51.7676 H       1  ZINC000428748914    0.1400
     37 H37        -9.2344    1.9180   54.8764 H       1  ZINC000428748914    0.1000
     38 H38       -10.5486    0.1085   55.7737 H       1  ZINC000428748914    0.0700
     39 H39        -9.0919   -0.8606   56.1729 H       1  ZINC000428748914    0.0800
     40 H40       -10.1164    1.6894   57.5380 H       1  ZINC000428748914    0.0700
     41 H41        -9.6090    0.1496   58.3005 H       1  ZINC000428748914    0.0700
     42 H42        -7.9273    2.3360   58.0406 H       1  ZINC000428748914    0.0700
     43 H43        -7.3396    0.6499   58.0904 H       1  ZINC000428748914    0.0700
     44 H44        -6.6236    0.8356   55.9279 H       1  ZINC000428748914    0.0800
     45 H45        -7.2113    2.5217   55.8781 H       1  ZINC000428748914    0.0700
     46 H46        -6.2349    4.0044   52.6956 H       1  ZINC000428748914    0.1600
     47 H47        -2.9020    0.8893   48.1523 H       1  ZINC000428748914    0.3900
     48 H48        -0.5957    2.0893   49.4134 H       1  ZINC000428748914    0.0700
     49 H49        -0.9619    0.4675   50.0488 H       1  ZINC000428748914    0.0900
     50 H50        -1.9234   -0.8554   47.3080 H       1  ZINC000428748914    0.0500
     51 H51        -0.2822   -1.2797   46.7653 H       1  ZINC000428748914    0.0600
     52 H52         0.1470   -1.7385   49.1337 H       1  ZINC000428748914    0.3800
     53 H53         1.5800    1.4813   48.4593 H       1  ZINC000428748914    0.1100
     54 H54         1.7174    0.0335   47.3251 H       1  ZINC000428748914    0.1100
     55 H55        -2.1901    0.5893   45.5379 H       1  ZINC000428748914    0.1400
     56 H56        -2.3599   -0.2802   43.2408 H       1  ZINC000428748914    0.1400
     57 H57         1.8469    0.2403   42.7362 H       1  ZINC000428748914    0.1400
     58 H58         2.0121    1.1142   45.0319 H       1  ZINC000428748914    0.1300
@<TRIPOS>BOND
     1     1     2    2
     2     2     3   am
     3     2    17   am
     4     3     4    1
     5     3    32    1
     6     4     5    1
     7     4    33    1
     8     4    34    1
     9     5    16   ar
    10     5     6   ar
    11     6     7   ar
    12     6    35    1
    13     7     8   ar
    14     7    36    1
    15     8     9    1
    16     8    15   ar
    17     9    10    1
    18    10    14    1
    19    10    11    1
    20    10    37    1
    21    11    12    1
    22    11    38    1
    23    11    39    1
    24    12    13    1
    25    12    40    1
    26    12    41    1
    27    13    14    1
    28    13    42    1
    29    13    43    1
    30    14    44    1
    31    14    45    1
    32    15    16   ar
    33    16    46    1
    34    17    18    1
    35    17    47    1
    36    18    19    1
    37    18    48    1
    38    18    49    1
    39    19    23    1
    40    19    20    1
    41    19    22    1
    42    20    21    1
    43    20    50    1
    44    20    51    1
    45    21    52    1
    46    22    23    1
    47    22    53    1
    48    22    54    1
    49    23    24    1
    50    23    25    1
    51    25    31   ar
    52    25    26   ar
    53    26    27   ar
    54    26    55    1
    55    27    28   ar
    56    27    56    1
    57    28    29    1
    58    28    30   ar
    59    30    31   ar
    60    30    57    1
    61    31    58    1
@<TRIPOS>SUBSTRUCTURE
     1 ZINC000428748914        1 TEMP              0 ****  ****    0 ROOT


##########                                Name:    ZINC000428266315
##########                DOCK_Rotatable_Bonds:                  10
##########                         Heavy_Atoms:                  30
##########                    Molecular_Weight:             423.438
##########                DOCK_Rotatable_Bonds:                  10
##########                       Formal_Charge:          0.00999977
##########                     HBond_Acceptors:                  10
##########                        HBond_Donors:                   0
##########                         Heavy_Atoms:                  30
##########                          Grid_Score:          -40.920116
##########                     Grid_vdw_energy:          -40.010052
##########                      Grid_es_energy:           -0.910064
##########           Internal_energy_repulsive:           17.482948

@<TRIPOS>MOLECULE
ZINC000428266315
 54 56 1 0 0
SMALL
USER_CHARGES


@<TRIPOS>ATOM
      1 C1         -9.6342   -0.8157   56.6177 C.3     1  ZINC000428266315   -0.1500
      2 C2         -9.4531   -0.2107   55.2241 C.3     1  ZINC000428266315    0.0600
      3 O3         -9.7954   -1.1832   54.2345 O.3     1  ZINC000428266315   -0.3700
      4 C4         -9.7987   -0.6765   52.8984 C.3     1  ZINC000428266315    0.1800
      5 H5         -9.9907   -1.4919   52.2010 H       1  ZINC000428266315    0.0900
      6 C6        -10.8931    0.3834   52.7576 C.3     1  ZINC000428266315   -0.1700
      7 C7         -8.4586   -0.0586   52.5922 C.2     1  ZINC000428266315    0.1700
      8 N8         -7.3875   -0.6917   52.2176 N.2     1  ZINC000428266315   -0.3500
      9 O9         -6.4750    0.0896   52.0499 O.3     1  ZINC000428266315    0.0800
     10 C10        -6.8901    1.3332   52.3093 C.2     1  ZINC000428266315    0.1900
     11 C11        -6.0653    2.5914   52.2210 C.3     1  ZINC000428266315    0.1500
     12 N12        -5.1058    2.4713   51.1150 N.3     1  ZINC000428266315   -0.5300
     13 C13        -5.7895    2.1344   49.8592 C.3     1  ZINC000428266315    0.0200
     14 C14        -4.3134    3.6996   50.9699 C.3     1  ZINC000428266315    0.1400
     15 C15        -2.8591    3.3421   50.8014 C.2     1  ZINC000428266315   -0.2300
     16 C16        -2.3770    2.2371   50.1869 C.2     1  ZINC000428266315    0.0800
     17 N17        -1.0298    2.2876   50.2471 N.pl3   1  ZINC000428266315   -0.3700
     18 C18        -0.1047    1.2902   49.7034 C.3     1  ZINC000428266315    0.1700
     19 C19        -0.4973    0.9607   48.2863 C.ar    1  ZINC000428266315   -0.0800
     20 C20        -0.3934    1.9223   47.2988 C.ar    1  ZINC000428266315   -0.1000
     21 C21        -0.7536    1.6200   45.9989 C.ar    1  ZINC000428266315   -0.0700
     22 C22        -1.2173    0.3558   45.6864 C.ar    1  ZINC000428266315   -0.1700
     23 C23        -1.6105    0.0263   44.2694 C.3     1  ZINC000428266315    0.5100
     24 F24        -2.9210    0.4573   44.0369 F       1  ZINC000428266315   -0.1700
     25 F25        -0.7428    0.6726   43.3825 F       1  ZINC000428266315   -0.1800
     26 F26        -1.5328   -1.3567   44.0735 F       1  ZINC000428266315   -0.1800
     27 C27        -1.3200   -0.6064   46.6737 C.ar    1  ZINC000428266315   -0.0700
     28 C28        -0.9561   -0.3051   47.9729 C.ar    1  ZINC000428266315   -0.0800
     29 N29        -0.6722    3.4625   50.9210 N.2     1  ZINC000428266315   -0.2900
     30 C30        -1.7690    4.0966   51.2474 C.2     1  ZINC000428266315    0.0600
     31 N31        -8.1534    1.2499   52.6507 N.2     1  ZINC000428266315   -0.4600
     32 H32        -9.3730   -0.0740   57.3726 H       1  ZINC000428266315    0.0700
     33 H33       -10.6727   -1.1187   56.7501 H       1  ZINC000428266315    0.0600
     34 H34        -8.9857   -1.6854   56.7233 H       1  ZINC000428266315    0.0600
     35 H35       -10.1015    0.6591   55.1185 H       1  ZINC000428266315    0.0500
     36 H36        -8.4144    0.0923   55.0918 H       1  ZINC000428266315    0.0500
     37 H37       -10.7011    1.1988   53.4550 H       1  ZINC000428266315    0.0700
     38 H38       -10.8956    0.7699   51.7384 H       1  ZINC000428266315    0.0700
     39 H39       -11.8623   -0.0635   52.9790 H       1  ZINC000428266315    0.0700
     40 H40        -6.7208    3.4438   52.0423 H       1  ZINC000428266315    0.0800
     41 H41        -5.5251    2.7381   53.1562 H       1  ZINC000428266315    0.1200
     42 H42        -6.5079    2.9172   49.6153 H       1  ZINC000428266315    0.0400
     43 H43        -5.0562    2.0517   49.0571 H       1  ZINC000428266315    0.0800
     44 H44        -6.3120    1.1847   49.9734 H       1  ZINC000428266315    0.0600
     45 H45        -4.6556    4.2515   50.0945 H       1  ZINC000428266315    0.0500
     46 H46        -4.4349    4.3176   51.8595 H       1  ZINC000428266315    0.0900
     47 H47        -2.9650    1.4548   49.7301 H       1  ZINC000428266315    0.1700
     48 H48         0.9092    1.6901   49.7159 H       1  ZINC000428266315    0.1000
     49 H49        -0.1464    0.3865   50.3115 H       1  ZINC000428266315    0.1100
     50 H50        -0.0311    2.9100   47.5429 H       1  ZINC000428266315    0.1300
     51 H51        -0.6730    2.3716   45.2275 H       1  ZINC000428266315    0.1400
     52 H52        -1.6820   -1.5942   46.4295 H       1  ZINC000428266315    0.1400
     53 H53        -1.0363   -1.0568   48.7442 H       1  ZINC000428266315    0.1400
     54 H54        -1.8236    5.0364   51.7767 H       1  ZINC000428266315    0.1800
@<TRIPOS>BOND
     1     1     2    1
     2     1    32    1
     3     1    33    1
     4     1    34    1
     5     2     3    1
     6     2    35    1
     7     2    36    1
     8     3     4    1
     9     4     5    1
    10     4     6    1
    11     4     7    1
    12     6    37    1
    13     6    38    1
    14     6    39    1
    15     7    31    1
    16     7     8    2
    17     8     9    1
    18     9    10    1
    19    10    11    1
    20    10    31    2
    21    11    12    1
    22    11    40    1
    23    11    41    1
    24    12    13    1
    25    12    14    1
    26    13    42    1
    27    13    43    1
    28    13    44    1
    29    14    15    1
    30    14    45    1
    31    14    46    1
    32    15    30    1
    33    15    16    2
    34    16    17    1
    35    16    47    1
    36    17    18    1
    37    17    29    1
    38    18    19    1
    39    18    48    1
    40    18    49    1
    41    19    28   ar
    42    19    20   ar
    43    20    21   ar
    44    20    50    1
    45    21    22   ar
    46    21    51    1
    47    22    23    1
    48    22    27   ar
    49    23    24    1
    50    23    25    1
    51    23    26    1
    52    27    28   ar
    53    27    52    1
    54    28    53    1
    55    29    30    2
    56    30    54    1
@<TRIPOS>SUBSTRUCTURE
     1 ZINC000428266315        1 TEMP              0 ****  ****    0 ROOT


##########                                Name:    ZINC000011620562
##########                DOCK_Rotatable_Bonds:                   9
##########                         Heavy_Atoms:                  29
##########                    Molecular_Weight:             417.448
##########                DOCK_Rotatable_Bonds:                   9
##########                       Formal_Charge:           0.0299999
##########                     HBond_Acceptors:                  12
##########                        HBond_Donors:                   1
##########                         Heavy_Atoms:                  29
##########                          Grid_Score:          -40.889431
##########                     Grid_vdw_energy:          -37.043804
##########                      Grid_es_energy:           -3.845628
##########           Internal_energy_repulsive:           10.094026

@<TRIPOS>MOLECULE
ZINC000011620562
 48 50 1 0 0
SMALL
USER_CHARGES


@<TRIPOS>ATOM
      1 C1         -8.6376   -0.4166   53.1799 C.3     1  ZINC000011620562    0.0400
      2 O2         -7.7806   -0.6841   52.0387 O.3     1  ZINC000011620562   -0.3500
      3 C3         -6.9012    0.2717   51.6997 C.2     1  ZINC000011620562    0.4600
      4 O4         -6.1458    0.0965   50.7731 O.2     1  ZINC000011620562   -0.5000
      5 C5         -6.8561    1.5633   52.4748 C.3     1  ZINC000011620562    0.1300
      6 N6         -5.5254    2.1627   52.3479 N.am    1  ZINC000011620562   -0.7200
      7 C7         -5.2754    3.0458   51.3608 C.2     1  ZINC000011620562    0.5400
      8 O8         -6.1525    3.3453   50.5786 O.2     1  ZINC000011620562   -0.5200
      9 C9         -3.9061    3.6611   51.2292 C.3     1  ZINC000011620562   -0.1600
     10 S10        -2.8823    2.6294   50.1505 S.3     1  ZINC000011620562    0.1400
     11 C11        -1.4577    3.6564   50.0070 C.2     1  ZINC000011620562    0.2100
     12 N12        -1.2393    4.7850   50.6475 N.2     1  ZINC000011620562   -0.3400
     13 N13        -0.1026    5.2795   50.3125 N.2     1  ZINC000011620562   -0.0300
     14 N14         0.4806    4.5199   49.4496 N.2     1  ZINC000011620562   -0.0800
     15 N15        -0.3773    3.4299   49.2205 N.pl3   1  ZINC000011620562   -0.2600
     16 C16        -0.1632    2.3405   48.3544 C.2     1  ZINC000011620562   -0.1300
     17 C17         0.2441    1.1034   48.7184 C.2     1  ZINC000011620562    0.2500
     18 C18         0.5480    0.6530   50.1240 C.3     1  ZINC000011620562   -0.1100
     19 N19         0.3333    0.3301   47.5924 N.pl3   1  ZINC000011620562   -0.3700
     20 C20         0.7398   -1.0766   47.5469 C.3     1  ZINC000011620562    0.0900
     21 N21        -0.0317    1.1153   46.4910 N.am    1  ZINC000011620562   -0.3600
     22 C22        -0.0718    0.6962   45.1574 C.ar    1  ZINC000011620562    0.1400
     23 C23         1.0116    0.9323   44.3209 C.ar    1  ZINC000011620562   -0.1300
     24 C24         0.9691    0.5167   43.0046 C.ar    1  ZINC000011620562   -0.1000
     25 C25        -0.1504   -0.1340   42.5192 C.ar    1  ZINC000011620562   -0.1100
     26 C26        -1.2309   -0.3702   43.3493 C.ar    1  ZINC000011620562   -0.1000
     27 C27        -1.1925    0.0377   44.6682 C.ar    1  ZINC000011620562   -0.1000
     28 C28        -0.3428    2.3457   46.9469 C.2     1  ZINC000011620562    0.5500
     29 O29        -0.7050    3.2922   46.2719 O.2     1  ZINC000011620562   -0.5000
     30 H30        -9.2341    0.4747   52.9853 H       1  ZINC000011620562    0.0700
     31 H31        -9.2987   -1.2674   53.3451 H       1  ZINC000011620562    0.1100
     32 H32        -8.0232   -0.2564   54.0659 H       1  ZINC000011620562    0.0700
     33 H33        -7.6035    2.2509   52.0790 H       1  ZINC000011620562    0.1200
     34 H34        -7.0661    1.3640   53.5257 H       1  ZINC000011620562    0.1200
     35 H35        -4.8242    1.9241   52.9742 H       1  ZINC000011620562    0.4200
     36 H36        -3.9958    4.6588   50.7995 H       1  ZINC000011620562    0.1400
     37 H37        -3.4424    3.7296   52.2134 H       1  ZINC000011620562    0.1400
     38 H38         0.3897    1.4821   50.8136 H       1  ZINC000011620562    0.1000
     39 H39        -0.1111   -0.1730   50.3914 H       1  ZINC000011620562    0.1000
     40 H40         1.5855    0.3238   50.1837 H       1  ZINC000011620562    0.1000
     41 H41         0.9984   -1.4127   48.5510 H       1  ZINC000011620562    0.1100
     42 H42        -0.0823   -1.6801   47.1622 H       1  ZINC000011620562    0.0900
     43 H43         1.6058   -1.1836   46.8936 H       1  ZINC000011620562    0.0900
     44 H44         1.8861    1.4408   44.6994 H       1  ZINC000011620562    0.1300
     45 H45         1.8111    0.7003   42.3535 H       1  ZINC000011620562    0.1300
     46 H46        -0.1810   -0.4580   41.4894 H       1  ZINC000011620562    0.1300
     47 H47        -2.1039   -0.8780   42.9668 H       1  ZINC000011620562    0.1400
     48 H48        -2.0365   -0.1474   45.3160 H       1  ZINC000011620562    0.1400
@<TRIPOS>BOND
     1     1     2    1
     2     1    30    1
     3     1    31    1
     4     1    32    1
     5     2     3    1
     6     3     4    2
     7     3     5    1
     8     5     6    1
     9     5    33    1
    10     5    34    1
    11     6     7   am
    12     6    35    1
    13     7     8    2
    14     7     9    1
    15     9    10    1
    16     9    36    1
    17     9    37    1
    18    10    11    1
    19    11    15    1
    20    11    12    2
    21    12    13    1
    22    13    14    2
    23    14    15    1
    24    15    16    1
    25    16    28    1
    26    16    17    2
    27    17    18    1
    28    17    19    1
    29    18    38    1
    30    18    39    1
    31    18    40    1
    32    19    20    1
    33    19    21    1
    34    20    41    1
    35    20    42    1
    36    20    43    1
    37    21    22    1
    38    21    28   am
    39    22    27   ar
    40    22    23   ar
    41    23    24   ar
    42    23    44    1
    43    24    25   ar
    44    24    45    1
    45    25    26   ar
    46    25    46    1
    47    26    27   ar
    48    26    47    1
    49    27    48    1
    50    28    29    2
@<TRIPOS>SUBSTRUCTURE
     1 ZINC000011620562        1 TEMP              0 ****  ****    0 ROOT


##########                                Name:    ZINC000058174787
##########                DOCK_Rotatable_Bonds:                   9
##########                         Heavy_Atoms:                  27
##########                    Molecular_Weight:             413.882
##########                DOCK_Rotatable_Bonds:                   9
##########                       Formal_Charge:           0.0200002
##########                     HBond_Acceptors:                  10
##########                        HBond_Donors:                   1
##########                         Heavy_Atoms:                  27
##########                          Grid_Score:          -40.806030
##########                     Grid_vdw_energy:          -40.375385
##########                      Grid_es_energy:           -0.430645
##########           Internal_energy_repulsive:           12.325394

@<TRIPOS>MOLECULE
ZINC000058174787
 47 48 1 0 0
SMALL
USER_CHARGES


@<TRIPOS>ATOM
      1 C1         -9.2341   -0.2547   53.4751 C.3     1  ZINC000058174787   -0.0700
      2 C2         -8.3100    0.6001   52.6464 C.2     1  ZINC000058174787    0.2100
      3 N3         -8.2963    1.9048   52.6244 N.2     1  ZINC000058174787   -0.4200
      4 C4         -7.3455    2.3228   51.7757 C.2     1  ZINC000058174787   -0.5600
      5 S5         -6.9486    4.0002   51.4102 S.o2    1  ZINC000058174787    2.7400
      6 O6         -7.7662    4.3754   50.3101 O.2     1  ZINC000058174787   -0.9500
      7 O7         -6.9497    4.6924   52.6511 O.2     1  ZINC000058174787   -0.9600
      8 N8         -5.3862    4.0259   50.8617 N.am    1  ZINC000058174787   -1.1100
      9 C9         -4.3003    3.5475   51.7208 C.3     1  ZINC000058174787    0.1300
     10 C10        -2.9624    3.7309   51.0016 C.3     1  ZINC000058174787   -0.1200
     11 C11        -2.9527    2.9060   49.7406 C.2     1  ZINC000058174787    0.4700
     12 O12        -3.9058    2.2178   49.4614 O.2     1  ZINC000058174787   -0.5000
     13 O13        -1.8853    2.9357   48.9272 O.3     1  ZINC000058174787   -0.3300
     14 C14        -1.7866    1.8845   47.9304 C.3     1  ZINC000058174787    0.0400
     15 H15        -2.7757    1.6767   47.5224 H       1  ZINC000058174787    0.1200
     16 C16        -1.2259    0.6174   48.5792 C.3     1  ZINC000058174787   -0.1700
     17 C17        -0.8688    2.3291   46.8208 C.2     1  ZINC000058174787    0.4000
     18 O18        -0.1750    3.3132   46.9654 O.2     1  ZINC000058174787   -0.4200
     19 C19        -0.8144    1.5694   45.5625 C.ar    1  ZINC000058174787   -0.1600
     20 C20         0.3930    1.4487   44.8661 C.ar    1  ZINC000058174787   -0.0600
     21 C21         0.4365    0.7349   43.6879 C.ar    1  ZINC000058174787   -0.1200
     22 C22        -0.7117    0.1376   43.1929 C.ar    1  ZINC000058174787    0.0000
     23 Cl23       -0.6472   -0.7601   41.7085 Cl      1  ZINC000058174787   -0.0500
     24 C24        -1.9109    0.2530   43.8774 C.ar    1  ZINC000058174787   -0.1200
     25 C25        -1.9685    0.9592   45.0595 C.ar    1  ZINC000058174787   -0.0400
     26 C26        -6.7474    1.2359   51.2520 C.2     1  ZINC000058174787    0.0700
     27 N27        -7.3552    0.1428   51.8080 N.pl3   1  ZINC000058174787   -0.4500
     28 C28        -7.0356   -1.2611   51.5376 C.3     1  ZINC000058174787    0.0600
     29 H29        -8.7760   -0.4505   54.4446 H       1  ZINC000058174787    0.0900
     30 H30       -10.1802    0.2670   53.6190 H       1  ZINC000058174787    0.1000
     31 H31        -9.4142   -1.1989   52.9611 H       1  ZINC000058174787    0.0800
     32 H32        -5.1901    4.3577   49.9716 H       1  ZINC000058174787    0.4200
     33 H33        -4.2944    4.1171   52.6501 H       1  ZINC000058174787    0.0900
     34 H34        -4.4514    2.4910   51.9431 H       1  ZINC000058174787    0.0900
     35 H35        -2.8269    4.7825   50.7490 H       1  ZINC000058174787    0.1200
     36 H36        -2.1517    3.4066   51.6541 H       1  ZINC000058174787    0.1200
     37 H37        -0.2367    0.8254   48.9871 H       1  ZINC000058174787    0.0800
     38 H38        -1.8897    0.2959   49.3817 H       1  ZINC000058174787    0.0800
     39 H39        -1.1518   -0.1717   47.8309 H       1  ZINC000058174787    0.0800
     40 H40         1.2885    1.9141   45.2504 H       1  ZINC000058174787    0.1400
     41 H41         1.3678    0.6412   43.1490 H       1  ZINC000058174787    0.1400
     42 H42        -2.8019   -0.2152   43.4857 H       1  ZINC000058174787    0.1400
     43 H43        -2.9037    1.0480   45.5920 H       1  ZINC000058174787    0.1500
     44 H44        -5.9403    1.2282   50.5343 H       1  ZINC000058174787    0.1900
     45 H45        -6.2708   -1.6007   52.2361 H       1  ZINC000058174787    0.0900
     46 H46        -7.9330   -1.8678   51.6583 H       1  ZINC000058174787    0.1000
     47 H47        -6.6651   -1.3594   50.5172 H       1  ZINC000058174787    0.0900
@<TRIPOS>BOND
     1     1     2    1
     2     1    29    1
     3     1    30    1
     4     1    31    1
     5     2    27    1
     6     2     3    2
     7     3     4    1
     8     4     5    1
     9     4    26    2
    10     5     6    2
    11     5     7    2
    12     5     8   am
    13     8     9    1
    14     8    32    1
    15     9    10    1
    16     9    33    1
    17     9    34    1
    18    10    11    1
    19    10    35    1
    20    10    36    1
    21    11    12    2
    22    11    13    1
    23    13    14    1
    24    14    15    1
    25    14    16    1
    26    14    17    1
    27    16    37    1
    28    16    38    1
    29    16    39    1
    30    17    18    2
    31    17    19    1
    32    19    25   ar
    33    19    20   ar
    34    20    21   ar
    35    20    40    1
    36    21    22   ar
    37    21    41    1
    38    22    23    1
    39    22    24   ar
    40    24    25   ar
    41    24    42    1
    42    25    43    1
    43    26    27    1
    44    26    44    1
    45    27    28    1
    46    28    45    1
    47    28    46    1
    48    28    47    1
@<TRIPOS>SUBSTRUCTURE
     1 ZINC000058174787        1 TEMP              0 ****  ****    0 ROOT


##########                                Name:    ZINC000533131987
##########                DOCK_Rotatable_Bonds:                  11
##########                         Heavy_Atoms:                  30
##########                    Molecular_Weight:             419.403
##########                DOCK_Rotatable_Bonds:                  11
##########                       Formal_Charge:                0.01
##########                     HBond_Acceptors:                   9
##########                        HBond_Donors:                   3
##########                         Heavy_Atoms:                  30
##########                          Grid_Score:          -40.676857
##########                     Grid_vdw_energy:          -37.193798
##########                      Grid_es_energy:           -3.483060
##########           Internal_energy_repulsive:           27.589506

@<TRIPOS>MOLECULE
ZINC000533131987
 50 52 1 0 0
SMALL
USER_CHARGES


@<TRIPOS>ATOM
      1 O1         -4.3593    1.1480   50.1016 O.2     1  ZINC000533131987   -0.5700
      2 C2         -4.1478    2.3082   49.8053 C.2     1  ZINC000533131987    0.7100
      3 N3         -4.9651    3.2792   50.2588 N.am    1  ZINC000533131987   -0.7400
      4 C4         -6.1115    2.9364   51.1039 C.3     1  ZINC000533131987    0.1400
      5 C5         -5.6644    2.8636   52.5652 C.3     1  ZINC000533131987   -0.0900
      6 H6         -5.0112    2.0018   52.7028 H       1  ZINC000533131987    0.0900
      7 C7         -4.9066    4.1414   52.9309 C.3     1  ZINC000533131987    0.0800
      8 O8         -4.5956    4.1282   54.3256 O.3     1  ZINC000533131987   -0.5600
      9 C9         -6.8918    2.7225   53.4678 C.3     1  ZINC000533131987   -0.0900
     10 C10        -7.6699    1.4950   53.0692 C.ar    1  ZINC000533131987    0.0000
     11 C11        -7.0036    0.3684   52.6250 C.ar    1  ZINC000533131987   -0.1100
     12 C12        -7.7175   -0.7576   52.2593 C.ar    1  ZINC000533131987   -0.0800
     13 C13        -9.0973   -0.7571   52.3384 C.ar    1  ZINC000533131987   -0.1300
     14 C14        -9.7638    0.3695   52.7836 C.ar    1  ZINC000533131987   -0.0700
     15 C15        -9.0499    1.4938   53.1532 C.ar    1  ZINC000533131987   -0.1700
     16 C16        -9.7763    2.7217   53.6385 C.3     1  ZINC000533131987    0.5100
     17 F17        -9.6736    3.7343   52.6788 F       1  ZINC000533131987   -0.1800
     18 F18       -11.1248    2.4134   53.8485 F       1  ZINC000533131987   -0.1700
     19 F19        -9.2052    3.1574   54.8391 F       1  ZINC000533131987   -0.1800
     20 N20        -3.0931    2.6236   49.0279 N.am    1  ZINC000533131987   -0.6900
     21 C21        -2.2444    1.6151   48.5569 C.ar    1  ZINC000533131987    0.1600
     22 C22        -1.4611    0.8934   49.4493 C.ar    1  ZINC000533131987   -0.1000
     23 C23        -0.6211   -0.1037   48.9892 C.ar    1  ZINC000533131987   -0.1000
     24 C24        -0.5551   -0.3888   47.6407 C.ar    1  ZINC000533131987   -0.1000
     25 C25        -1.3381    0.3308   46.7361 C.ar    1  ZINC000533131987    0.0000
     26 C26        -1.2697    0.0271   45.2908 C.2     1  ZINC000533131987    0.2300
     27 N27        -0.6842    0.7674   44.3792 N.2     1  ZINC000533131987   -0.4700
     28 C28        -0.8275    0.1717   43.1858 C.2     1  ZINC000533131987   -0.0400
     29 C29        -1.5210   -0.9660   43.3737 C.2     1  ZINC000533131987   -0.0700
     30 O30        -1.7919   -1.0566   44.6908 O.3     1  ZINC000533131987   -0.2000
     31 C31        -2.1895    1.3325   47.2008 C.ar    1  ZINC000533131987   -0.1000
     32 H32        -4.7941    4.2051   50.0256 H       1  ZINC000533131987    0.4000
     33 H33        -6.8825    3.6995   50.9974 H       1  ZINC000533131987    0.0700
     34 H34        -6.5123    1.9699   50.7980 H       1  ZINC000533131987    0.0800
     35 H35        -3.9837    4.1944   52.3534 H       1  ZINC000533131987    0.0400
     36 H36        -5.5268    5.0089   52.7052 H       1  ZINC000533131987    0.0600
     37 H37        -4.1246    3.3351   54.6161 H       1  ZINC000533131987    0.3800
     38 H38        -6.5709    2.6283   54.5052 H       1  ZINC000533131987    0.0800
     39 H39        -7.5241    3.6039   53.3616 H       1  ZINC000533131987    0.0900
     40 H40        -5.9253    0.3681   52.5632 H       1  ZINC000533131987    0.1300
     41 H41        -7.1968   -1.6377   51.9115 H       1  ZINC000533131987    0.1300
     42 H42        -9.6551   -1.6365   52.0520 H       1  ZINC000533131987    0.1300
     43 H43       -10.8420    0.3700   52.8451 H       1  ZINC000533131987    0.1300
     44 H44        -2.9220    3.5495   48.7948 H       1  ZINC000533131987    0.4100
     45 H45        -1.5084    1.1123   50.5058 H       1  ZINC000533131987    0.1500
     46 H46        -0.0145   -0.6611   49.6874 H       1  ZINC000533131987    0.1400
     47 H47         0.1026   -1.1681   47.2851 H       1  ZINC000533131987    0.1300
     48 H48        -0.4530    0.5397   42.2420 H       1  ZINC000533131987    0.1900
     49 H49        -1.8044   -1.6764   42.6113 H       1  ZINC000533131987    0.2200
     50 H50        -2.7976    1.8924   46.5058 H       1  ZINC000533131987    0.1400
@<TRIPOS>BOND
     1     1     2    2
     2     2     3   am
     3     2    20   am
     4     3     4    1
     5     3    32    1
     6     4     5    1
     7     4    33    1
     8     4    34    1
     9     5     6    1
    10     5     7    1
    11     5     9    1
    12     7     8    1
    13     7    35    1
    14     7    36    1
    15     8    37    1
    16     9    10    1
    17     9    38    1
    18     9    39    1
    19    10    15   ar
    20    10    11   ar
    21    11    12   ar
    22    11    40    1
    23    12    13   ar
    24    12    41    1
    25    13    14   ar
    26    13    42    1
    27    14    15   ar
    28    14    43    1
    29    15    16    1
    30    16    17    1
    31    16    18    1
    32    16    19    1
    33    20    21    1
    34    20    44    1
    35    21    31   ar
    36    21    22   ar
    37    22    23   ar
    38    22    45    1
    39    23    24   ar
    40    23    46    1
    41    24    25   ar
    42    24    47    1
    43    25    26    1
    44    25    31   ar
    45    26    30    1
    46    26    27    2
    47    27    28    1
    48    28    29    2
    49    28    48    1
    50    29    30    1
    51    29    49    1
    52    31    50    1
@<TRIPOS>SUBSTRUCTURE
     1 ZINC000533131987        1 TEMP              0 ****  ****    0 ROOT


##########                                Name:    ZINC000062291520
##########                DOCK_Rotatable_Bonds:                  10
##########                         Heavy_Atoms:                  29
##########                    Molecular_Weight:             398.502
##########                DOCK_Rotatable_Bonds:                  10
##########                       Formal_Charge:          -0.0100006
##########                     HBond_Acceptors:                   6
##########                        HBond_Donors:                   1
##########                         Heavy_Atoms:                  29
##########                          Grid_Score:          -40.630234
##########                     Grid_vdw_energy:          -39.913898
##########                      Grid_es_energy:           -0.716337
##########           Internal_energy_repulsive:           22.858597

@<TRIPOS>MOLECULE
ZINC000062291520
 59 61 1 0 0
SMALL
USER_CHARGES


@<TRIPOS>ATOM
      1 C1        -10.4449   -2.0865   56.1528 C.3     1  ZINC000062291520    0.0300
      2 O2         -9.5401   -1.1618   55.5459 O.3     1  ZINC000062291520   -0.3100
      3 C3        -10.0300   -0.3884   54.5403 C.ar    1  ZINC000062291520    0.1000
      4 C4        -11.3415   -0.5426   54.1219 C.ar    1  ZINC000062291520   -0.1700
      5 C5        -11.8363    0.2408   53.0953 C.ar    1  ZINC000062291520   -0.1200
      6 C6        -11.0268    1.1825   52.4886 C.ar    1  ZINC000062291520   -0.1200
      7 C7         -9.7185    1.3458   52.9057 C.ar    1  ZINC000062291520   -0.1700
      8 C8         -9.2165    0.5643   53.9335 C.ar    1  ZINC000062291520    0.1000
      9 O9         -7.9301    0.7237   54.3449 O.3     1  ZINC000062291520   -0.3100
     10 C10        -7.0350    1.3724   53.4394 C.3     1  ZINC000062291520    0.0700
     11 C11        -6.8087    0.4790   52.2182 C.3     1  ZINC000062291520   -0.1400
     12 C12        -6.1370    1.2763   51.1300 C.2     1  ZINC000062291520    0.5200
     13 O13        -6.2324    0.9243   49.9734 O.2     1  ZINC000062291520   -0.5400
     14 N14        -5.4300    2.3805   51.4423 N.am    1  ZINC000062291520   -0.7200
     15 C15        -4.7785    3.1566   50.3843 C.3     1  ZINC000062291520    0.1600
     16 C16        -3.3228    2.7745   50.3049 C.ar    1  ZINC000062291520   -0.1100
     17 C17        -2.4156    3.3207   51.1931 C.ar    1  ZINC000062291520   -0.1000
     18 C18        -1.0802    2.9698   51.1206 C.ar    1  ZINC000062291520   -0.1200
     19 C19        -0.6525    2.0730   50.1597 C.ar    1  ZINC000062291520   -0.0900
     20 C20        -1.5600    1.5271   49.2709 C.ar    1  ZINC000062291520   -0.0800
     21 C21        -1.0936    0.5496   48.2231 C.3     1  ZINC000062291520    0.0900
     22 N22        -1.4534    1.0516   46.8902 N.3     1  ZINC000062291520   -0.5300
     23 C23        -0.7394    2.3005   46.5872 C.3     1  ZINC000062291520    0.0100
     24 C24        -1.1876    2.8189   45.2181 C.3     1  ZINC000062291520    0.0600
     25 O25        -0.9549    1.8093   44.2323 O.3     1  ZINC000062291520   -0.3800
     26 C26        -1.6358    0.5796   44.4957 C.3     1  ZINC000062291520    0.0900
     27 H27        -2.7117    0.7541   44.5056 H       1  ZINC000062291520    0.0700
     28 C28        -1.2933   -0.4377   43.4055 C.3     1  ZINC000062291520   -0.1500
     29 C29        -1.1923    0.0385   45.8575 C.3     1  ZINC000062291520    0.0200
     30 C30        -2.8959    1.8735   49.3472 C.ar    1  ZINC000062291520   -0.0900
     31 H31       -11.2851   -1.5425   56.5844 H       1  ZINC000062291520    0.0500
     32 H32       -10.8118   -2.7835   55.3994 H       1  ZINC000062291520    0.0600
     33 H33        -9.9280   -2.6387   56.9376 H       1  ZINC000062291520    0.1000
     34 H34       -11.9761   -1.2777   54.5942 H       1  ZINC000062291520    0.1400
     35 H35       -12.8578    0.1168   52.7672 H       1  ZINC000062291520    0.1300
     36 H36       -11.4169    1.7924   51.6872 H       1  ZINC000062291520    0.1300
     37 H37        -9.0881    2.0828   52.4305 H       1  ZINC000062291520    0.1400
     38 H38        -6.0829    1.5545   53.9379 H       1  ZINC000062291520    0.0700
     39 H39        -7.4655    2.3217   53.1205 H       1  ZINC000062291520    0.0700
     40 H40        -7.7678    0.1075   51.8572 H       1  ZINC000062291520    0.1100
     41 H41        -6.1744   -0.3627   52.4962 H       1  ZINC000062291520    0.1100
     42 H42        -5.3527    2.6614   52.3675 H       1  ZINC000062291520    0.4000
     43 H43        -5.2617    2.9471   49.4300 H       1  ZINC000062291520    0.0800
     44 H44        -4.8633    4.2198   50.6088 H       1  ZINC000062291520    0.0800
     45 H45        -2.7499    4.0210   51.9441 H       1  ZINC000062291520    0.1200
     46 H46        -0.3714    3.3962   51.8149 H       1  ZINC000062291520    0.1300
     47 H47         0.3906    1.7990   50.1031 H       1  ZINC000062291520    0.1200
     48 H48        -0.0116    0.4357   48.2886 H       1  ZINC000062291520    0.0500
     49 H49        -1.5713   -0.4161   48.3888 H       1  ZINC000062291520    0.0900
     50 H50        -0.9674    3.0445   47.3506 H       1  ZINC000062291520    0.0900
     51 H51         0.3339    2.1116   46.5721 H       1  ZINC000062291520    0.0400
     52 H52        -2.2504    3.0587   45.2498 H       1  ZINC000062291520    0.0600
     53 H53        -0.6193    3.7136   44.9640 H       1  ZINC000062291520    0.1000
     54 H54        -0.2175   -0.6130   43.3971 H       1  ZINC000062291520    0.0600
     55 H55        -1.8125   -1.3747   43.6068 H       1  ZINC000062291520    0.0700
     56 H56        -1.6059   -0.0503   42.4358 H       1  ZINC000062291520    0.0700
     57 H57        -0.1261   -0.1868   45.8299 H       1  ZINC000062291520    0.0400
     58 H58        -1.7507   -0.8687   46.0881 H       1  ZINC000062291520    0.0900
     59 H59        -3.6055    1.4434   48.6559 H       1  ZINC000062291520    0.1200
@<TRIPOS>BOND
     1     1     2    1
     2     1    31    1
     3     1    32    1
     4     1    33    1
     5     2     3    1
     6     3     8   ar
     7     3     4   ar
     8     4     5   ar
     9     4    34    1
    10     5     6   ar
    11     5    35    1
    12     6     7   ar
    13     6    36    1
    14     7     8   ar
    15     7    37    1
    16     8     9    1
    17     9    10    1
    18    10    11    1
    19    10    38    1
    20    10    39    1
    21    11    12    1
    22    11    40    1
    23    11    41    1
    24    12    13    2
    25    12    14   am
    26    14    15    1
    27    14    42    1
    28    15    16    1
    29    15    43    1
    30    15    44    1
    31    16    30   ar
    32    16    17   ar
    33    17    18   ar
    34    17    45    1
    35    18    19   ar
    36    18    46    1
    37    19    20   ar
    38    19    47    1
    39    20    21    1
    40    20    30   ar
    41    21    22    1
    42    21    48    1
    43    21    49    1
    44    22    29    1
    45    22    23    1
    46    23    24    1
    47    23    50    1
    48    23    51    1
    49    24    25    1
    50    24    52    1
    51    24    53    1
    52    25    26    1
    53    26    27    1
    54    26    28    1
    55    26    29    1
    56    28    54    1
    57    28    55    1
    58    28    56    1
    59    29    57    1
    60    29    58    1
    61    30    59    1
@<TRIPOS>SUBSTRUCTURE
     1 ZINC000062291520        1 TEMP              0 ****  ****    0 ROOT


##########                                Name:    ZINC001573443776
##########                DOCK_Rotatable_Bonds:                   8
##########                         Heavy_Atoms:                  28
##########                    Molecular_Weight:             386.457
##########                DOCK_Rotatable_Bonds:                   8
##########                       Formal_Charge:          0.00999954
##########                     HBond_Acceptors:                  10
##########                        HBond_Donors:                   3
##########                         Heavy_Atoms:                  28
##########                          Grid_Score:          -40.411423
##########                     Grid_vdw_energy:          -39.811619
##########                      Grid_es_energy:           -0.599803
##########           Internal_energy_repulsive:           30.044287

@<TRIPOS>MOLECULE
ZINC001573443776
 54 56 1 0 0
SMALL
USER_CHARGES


@<TRIPOS>ATOM
      1 C1         -7.3702    2.1176   55.6758 C.3     1  ZINC001573443776   -0.1800
      2 C2         -7.8827    0.9690   54.8456 C.2     1  ZINC001573443776    0.5100
      3 O3         -8.4414    0.0353   55.3815 O.2     1  ZINC001573443776   -0.5400
      4 N4         -7.7201    0.9793   53.5078 N.am    1  ZINC001573443776   -0.6100
      5 C5         -8.2144   -0.1332   52.6851 C.3     1  ZINC001573443776    0.1100
      6 C6         -7.0627   -0.6575   51.8215 C.3     1  ZINC001573443776   -0.1300
      7 C7         -6.4641    0.5001   51.0192 C.3     1  ZINC001573443776   -0.1000
      8 C8         -5.9071    1.5540   51.9789 C.3     1  ZINC001573443776   -0.1200
      9 H9         -5.1505    1.0999   52.6188 H       1  ZINC001573443776    0.1000
     10 C10        -5.2885    2.6778   51.1880 C.2     1  ZINC001573443776    0.5200
     11 O11        -5.9813    3.5864   50.7816 O.2     1  ZINC001573443776   -0.5300
     12 N12        -3.9652    2.6728   50.9322 N.am    1  ZINC001573443776   -0.7300
     13 C13        -3.3635    3.7661   50.1647 C.3     1  ZINC001573443776    0.1100
     14 C14        -1.8690    3.8495   50.4817 C.3     1  ZINC001573443776    0.1400
     15 H15        -1.4124    4.6327   49.8766 H       1  ZINC001573443776    0.0900
     16 C16        -1.6796    4.1750   51.9647 C.3     1  ZINC001573443776   -0.1700
     17 N17        -1.2331    2.5650   50.1786 N.pl3   1  ZINC001573443776   -0.7200
     18 C18        -1.2203    2.0869   48.8743 C.ar    1  ZINC001573443776    0.4300
     19 C19        -1.5352    0.7536   48.6282 C.ar    1  ZINC001573443776   -0.2500
     20 C20        -1.5205    0.2863   47.3286 C.ar    1  ZINC001573443776    0.0100
     21 C21        -1.1873    1.1788   46.3042 C.ar    1  ZINC001573443776   -0.1400
     22 C22        -1.1580    0.7252   44.8913 C.2     1  ZINC001573443776    0.2400
     23 N23        -2.1963    0.5572   44.0965 N.2     1  ZINC001573443776   -0.3000
     24 N24        -1.7571    0.1567   42.9532 N.pl3   1  ZINC001573443776   -0.2300
     25 N25        -0.4737    0.0656   42.9980 N.2     1  ZINC001573443776   -0.0500
     26 N26        -0.0701    0.4123   44.1730 N.2     1  ZINC001573443776   -0.2700
     27 C27        -0.8840    2.4979   46.6279 C.ar    1  ZINC001573443776    0.2300
     28 C28        -0.5233    3.4699   45.5343 C.3     1  ZINC001573443776   -0.1200
     29 N29        -0.9138    2.9071   47.8803 N.ar    1  ZINC001573443776   -0.5400
     30 C30        -7.0507    2.1060   52.8436 C.3     1  ZINC001573443776    0.1200
     31 H31        -6.3749    1.8791   56.0508 H       1  ZINC001573443776    0.0900
     32 H32        -7.3212    3.0165   55.0614 H       1  ZINC001573443776    0.0800
     33 H33        -8.0438    2.2877   56.5156 H       1  ZINC001573443776    0.1000
     34 H34        -8.5793   -0.9315   53.3312 H       1  ZINC001573443776    0.1000
     35 H35        -9.0221    0.2179   52.0428 H       1  ZINC001573443776    0.0700
     36 H36        -6.2951   -1.0908   52.4628 H       1  ZINC001573443776    0.0700
     37 H37        -7.4381   -1.4185   51.1374 H       1  ZINC001573443776    0.0800
     38 H38        -5.6604    0.1253   50.3853 H       1  ZINC001573443776    0.0800
     39 H39        -7.2381    0.9488   50.3965 H       1  ZINC001573443776    0.0700
     40 H40        -3.4112    1.9455   51.2561 H       1  ZINC001573443776    0.4000
     41 H41        -3.4991    3.5799   49.0994 H       1  ZINC001573443776    0.0900
     42 H42        -3.8449    4.7065   50.4333 H       1  ZINC001573443776    0.0800
     43 H43        -2.1528    5.1306   52.1902 H       1  ZINC001573443776    0.0700
     44 H44        -2.1361    3.3917   52.5698 H       1  ZINC001573443776    0.0700
     45 H45        -0.6149    4.2345   52.1905 H       1  ZINC001573443776    0.0700
     46 H46        -0.8211    2.0483   50.8886 H       1  ZINC001573443776    0.4100
     47 H47        -1.7876    0.0923   49.4438 H       1  ZINC001573443776    0.1400
     48 H48        -1.7603   -0.7435   47.1087 H       1  ZINC001573443776    0.1400
     49 H49        -2.3072   -0.0448   42.1800 H       1  ZINC001573443776    0.4800
     50 H50        -1.4271    3.9573   45.1685 H       1  ZINC001573443776    0.0800
     51 H51         0.1610    4.2217   45.9276 H       1  ZINC001573443776    0.0800
     52 H52        -0.0428    2.9341   44.7157 H       1  ZINC001573443776    0.1100
     53 H53        -7.7614    2.6397   52.2125 H       1  ZINC001573443776    0.0800
     54 H54        -6.6461    2.7836   53.5955 H       1  ZINC001573443776    0.0900
@<TRIPOS>BOND
     1     1     2    1
     2     1    31    1
     3     1    32    1
     4     1    33    1
     5     2     3    2
     6     2     4   am
     7     4    30    1
     8     4     5    1
     9     5     6    1
    10     5    34    1
    11     5    35    1
    12     6     7    1
    13     6    36    1
    14     6    37    1
    15     7     8    1
    16     7    38    1
    17     7    39    1
    18     8     9    1
    19     8    10    1
    20     8    30    1
    21    10    11    2
    22    10    12   am
    23    12    13    1
    24    12    40    1
    25    13    14    1
    26    13    41    1
    27    13    42    1
    28    14    15    1
    29    14    16    1
    30    14    17    1
    31    16    43    1
    32    16    44    1
    33    16    45    1
    34    17    18    1
    35    17    46    1
    36    18    29   ar
    37    18    19   ar
    38    19    20   ar
    39    19    47    1
    40    20    21   ar
    41    20    48    1
    42    21    22    1
    43    21    27   ar
    44    22    26    1
    45    22    23    2
    46    23    24    1
    47    24    25    1
    48    24    49    1
    49    25    26    2
    50    27    28    1
    51    27    29   ar
    52    28    50    1
    53    28    51    1
    54    28    52    1
    55    30    53    1
    56    30    54    1
@<TRIPOS>SUBSTRUCTURE
     1 ZINC001573443776        1 TEMP              0 ****  ****    0 ROOT


##########                                Name:    ZINC000045927156
##########                DOCK_Rotatable_Bonds:                   7
##########                         Heavy_Atoms:                  30
##########                    Molecular_Weight:             418.522
##########                DOCK_Rotatable_Bonds:                   7
##########                       Formal_Charge:           0.0200001
##########                     HBond_Acceptors:                   8
##########                        HBond_Donors:                   1
##########                         Heavy_Atoms:                  30
##########                          Grid_Score:          -40.345680
##########                     Grid_vdw_energy:          -38.805389
##########                      Grid_es_energy:           -1.540290
##########           Internal_energy_repulsive:           15.175056

@<TRIPOS>MOLECULE
ZINC000045927156
 52 56 1 0 0
SMALL
USER_CHARGES


@<TRIPOS>ATOM
      1 O1         -3.1255    1.1304   49.8313 O.2     1  ZINC000045927156   -0.5800
      2 C2         -2.4739    2.1244   50.0880 C.2     1  ZINC000045927156    0.7300
      3 N3         -3.0975    3.2692   50.4301 N.am    1  ZINC000045927156   -0.7400
      4 C4         -4.5607    3.3175   50.4868 C.3     1  ZINC000045927156    0.1700
      5 C5         -4.9989    3.6247   51.8956 C.ar    1  ZINC000045927156   -0.0700
      6 C6         -4.1203    4.2257   52.7771 C.ar    1  ZINC000045927156   -0.1000
      7 C7         -4.5222    4.5075   54.0695 C.ar    1  ZINC000045927156   -0.1100
      8 C8         -5.8029    4.1886   54.4799 C.ar    1  ZINC000045927156   -0.1100
      9 C9         -6.6821    3.5882   53.5979 C.ar    1  ZINC000045927156   -0.1000
     10 C10        -6.2817    3.3104   52.3046 C.ar    1  ZINC000045927156   -0.1000
     11 C11        -7.2401    2.6561   51.3430 C.3     1  ZINC000045927156    0.1700
     12 N12        -7.4363    1.2558   51.7263 N.pl3   1  ZINC000045927156   -0.3800
     13 C13        -6.8578    0.1788   51.1673 C.2     1  ZINC000045927156    0.2500
     14 N14        -7.2913   -0.8855   51.7927 N.2     1  ZINC000045927156   -0.5400
     15 C15        -8.1440   -0.5296   52.7528 C.2     1  ZINC000045927156    0.2000
     16 N16        -8.2613    0.7723   52.7550 N.2     1  ZINC000045927156   -0.3100
     17 N17        -1.1279    2.0798   50.0359 N.am    1  ZINC000045927156   -0.6200
     18 C18        -0.2191    3.2038   50.3261 C.3     1  ZINC000045927156    0.1000
     19 C19         1.1178    2.5372   50.7361 C.3     1  ZINC000045927156   -0.1300
     20 C20         1.1611    1.3139   49.7826 C.3     1  ZINC000045927156   -0.1200
     21 C21        -0.3224    0.9005   49.6865 C.3     1  ZINC000045927156    0.2300
     22 H22        -0.5264    0.0868   50.3824 H       1  ZINC000045927156    0.1000
     23 C23        -0.6428    0.4641   48.2800 C.2     1  ZINC000045927156    0.0900
     24 N24        -0.4546    1.1873   47.2417 N.2     1  ZINC000045927156   -0.4500
     25 C25        -0.7870    0.6677   46.0445 C.ar    1  ZINC000045927156    0.0800
     26 C26        -0.6872    1.2347   44.7583 C.ar    1  ZINC000045927156   -0.0700
     27 C27        -1.0846    0.5312   43.6616 C.ar    1  ZINC000045927156   -0.1100
     28 C28        -1.5933   -0.7535   43.7882 C.ar    1  ZINC000045927156   -0.1000
     29 C29        -1.7023   -1.3329   45.0325 C.ar    1  ZINC000045927156   -0.0700
     30 C30        -1.3010   -0.6284   46.1652 C.ar    1  ZINC000045927156   -0.1800
     31 S31        -1.2953   -1.0591   47.8726 S.3     1  ZINC000045927156    0.1200
     32 H32        -2.5776    4.0610   50.6388 H       1  ZINC000045927156    0.3900
     33 H33        -4.9247    4.0951   49.8153 H       1  ZINC000045927156    0.1000
     34 H34        -4.9682    2.3538   50.1815 H       1  ZINC000045927156    0.0700
     35 H35        -3.1195    4.4749   52.4564 H       1  ZINC000045927156    0.1300
     36 H36        -3.8355    4.9764   54.7585 H       1  ZINC000045927156    0.1300
     37 H37        -6.1167    4.4081   55.4897 H       1  ZINC000045927156    0.1300
     38 H38        -7.6828    3.3387   53.9186 H       1  ZINC000045927156    0.1300
     39 H39        -8.1965    3.1780   51.3717 H       1  ZINC000045927156    0.1100
     40 H40        -6.8307    2.7027   50.3339 H       1  ZINC000045927156    0.1000
     41 H41        -6.1579    0.1900   50.3449 H       1  ZINC000045927156    0.2200
     42 H42        -8.6523   -1.2066   53.4233 H       1  ZINC000045927156    0.2200
     43 H43        -0.0796    3.8181   49.4366 H       1  ZINC000045927156    0.0700
     44 H44        -0.6101    3.8057   51.1465 H       1  ZINC000045927156    0.0800
     45 H45         1.9595    3.2051   50.5534 H       1  ZINC000045927156    0.0900
     46 H46         1.0924    2.2194   51.7784 H       1  ZINC000045927156    0.0800
     47 H47         1.5496    1.6003   48.8053 H       1  ZINC000045927156    0.0900
     48 H48         1.7561    0.5093   50.2145 H       1  ZINC000045927156    0.0900
     49 H49        -0.2935    2.2336   44.6412 H       1  ZINC000045927156    0.1300
     50 H50        -1.0031    0.9786   42.6821 H       1  ZINC000045927156    0.1400
     51 H51        -1.9045   -1.2994   42.9098 H       1  ZINC000045927156    0.1400
     52 H52        -2.0991   -2.3326   45.1303 H       1  ZINC000045927156    0.1300
@<TRIPOS>BOND
     1     1     2    2
     2     2     3   am
     3     2    17   am
     4     3     4    1
     5     3    32    1
     6     4     5    1
     7     4    33    1
     8     4    34    1
     9     5    10   ar
    10     5     6   ar
    11     6     7   ar
    12     6    35    1
    13     7     8   ar
    14     7    36    1
    15     8     9   ar
    16     8    37    1
    17     9    10   ar
    18     9    38    1
    19    10    11    1
    20    11    12    1
    21    11    39    1
    22    11    40    1
    23    12    16    1
    24    12    13    1
    25    13    14    2
    26    13    41    1
    27    14    15    1
    28    15    16    2
    29    15    42    1
    30    17    21    1
    31    17    18    1
    32    18    19    1
    33    18    43    1
    34    18    44    1
    35    19    20    1
    36    19    45    1
    37    19    46    1
    38    20    21    1
    39    20    47    1
    40    20    48    1
    41    21    22    1
    42    21    23    1
    43    23    31    1
    44    23    24    2
    45    24    25    1
    46    25    30   ar
    47    25    26   ar
    48    26    27   ar
    49    26    49    1
    50    27    28   ar
    51    27    50    1
    52    28    29   ar
    53    28    51    1
    54    29    30   ar
    55    29    52    1
    56    30    31    1
@<TRIPOS>SUBSTRUCTURE
     1 ZINC000045927156        1 TEMP              0 ****  ****    0 ROOT


##########                                Name:     oleObject14.pdb
##########                DOCK_Rotatable_Bonds:                   9
##########                         Heavy_Atoms:                  33
##########                    Molecular_Weight:             484.424
##########                DOCK_Rotatable_Bonds:                   9
##########                       Formal_Charge:         0.000299782
##########                     HBond_Acceptors:                   7
##########                        HBond_Donors:                   1
##########                         Heavy_Atoms:                  33
##########                          Grid_Score:          -40.039246
##########                     Grid_vdw_energy:          -40.162029
##########                      Grid_es_energy:            0.122782
##########           Internal_energy_repulsive:           11.692650

@<TRIPOS>MOLECULE
oleObject14.pdb
 60 63 1 0 0
SMALL
NO_CHARGES


@<TRIPOS>ATOM
      1 C          -1.4377    0.2529   45.3223 C.ar    1  UNL         0.0422
      2 C          -1.4245    1.6432   45.5156 C.ar    1  UNL        -0.0408
      3 C          -1.2315    2.1732   46.8023 C.ar    1  UNL        -0.0288
      4 C          -1.0502    1.3115   47.9054 C.ar    1  UNL         0.0937
      5 C          -1.0645   -0.0836   47.7020 C.ar    1  UNL         0.0723
      6 C          -1.2578   -0.6106   46.4142 C.ar    1  UNL        -0.0221
      7 CL         -0.8429   -1.1902   49.0444 Cl      1  UNL        -0.0814
      8 O          -0.8574    1.7921   49.1864 O.3     1  UNL        -0.3432
      9 C          -0.7192    3.1893   49.4999 C.3     1  UNL         0.0661
     10 C          -1.1400    3.3854   50.9712 C.3     1  UNL         0.0222
     11 N          -2.5203    3.8959   51.1264 N.4     1  UNL        -0.3010
     12 C          -3.5455    3.1091   50.4016 C.3     1  UNL        -0.0010
     13 C          -4.9463    3.7520   50.5072 C.3     1  UNL        -0.0289
     14 C          -5.3798    4.0116   51.9703 C.3     1  UNL         0.0382
     15 C          -4.2537    4.7523   52.7348 C.3     1  UNL        -0.0289
     16 C          -2.8598    4.1077   52.5502 C.3     1  UNL        -0.0010
     17 C          -5.8116    2.7044   52.6799 C.2     1  UNL         0.2156
     18 O          -5.4438    1.6103   52.2927 O.2     1  UNL        -0.2774
     19 N          -6.6035    2.7659   53.8194 N.am    1  UNL        -0.3025
     20 C          -7.1104    1.6396   54.6256 C.3     1  UNL         0.0900
     21 C          -7.0699    1.9165   56.1273 C.ar    1  UNL        -0.0217
     22 C          -7.8429    1.1580   57.0296 C.ar    1  UNL        -0.0568
     23 C          -7.8022    1.4333   58.4062 C.ar    1  UNL        -0.0619
     24 C          -6.9861    2.4666   58.8927 C.ar    1  UNL        -0.0622
     25 C          -6.2086    3.2224   58.0013 C.ar    1  UNL        -0.0619
     26 C          -6.2495    2.9468   56.6248 C.ar    1  UNL        -0.0568
     27 C          -8.5121    1.2214   54.1917 C.ar    1  UNL         0.0652
     28 C          -9.6615    1.9056   54.6385 C.ar    1  UNL        -0.0383
     29 C         -10.9250    1.4674   54.2109 C.ar    1  UNL        -0.0588
     30 C         -10.9958    0.3595   53.3522 C.ar    1  UNL        -0.0438
     31 C          -9.8005   -0.2652   52.9567 C.ar    1  UNL         0.0272
     32 N          -8.5863    0.1541   53.3666 N.ar    1  UNL        -0.2590
     33 CL         -1.6785   -0.4043   43.7177 Cl      1  UNL        -0.0843
     34 H          -1.5635    2.3109   44.6700 H       1  UNL         0.0639
     35 H          -1.2245    3.2510   46.9284 H       1  UNL         0.0652
     36 H          -1.2681   -1.6864   46.2635 H       1  UNL         0.0655
     37 H          -1.3598    3.7863   48.8397 H       1  UNL         0.0586
     38 H           0.3242    3.5057   49.3738 H       1  UNL         0.0586
     39 H          -0.4394    4.0985   51.4249 H       1  UNL         0.0455
     40 H          -1.0316    2.4322   51.5051 H       1  UNL         0.0455
     41 H          -3.5833    2.0891   50.8060 H       1  UNL         0.0431
     42 H          -3.2924    3.0339   49.3377 H       1  UNL         0.0431
     43 H          -5.6818    3.1173   49.9995 H       1  UNL         0.0288
     44 H          -4.9322    4.7077   49.9673 H       1  UNL         0.0288
     45 H          -6.2284    4.7002   51.9423 H       1  UNL         0.0402
     46 H          -4.4994    4.8103   53.8028 H       1  UNL         0.0288
     47 H          -4.2039    5.7862   52.3691 H       1  UNL         0.0288
     48 H          -2.8286    3.1488   53.0826 H       1  UNL         0.0431
     49 H          -2.1119    4.7622   53.0164 H       1  UNL         0.0431
     50 H          -6.7706    3.6950   54.1843 H       1  UNL         0.1504
     51 H          -6.4544    0.7841   54.4196 H       1  UNL         0.0624
     52 H          -8.4836    0.3601   56.6658 H       1  UNL         0.0626
     53 H          -8.4039    0.8469   59.0947 H       1  UNL         0.0623
     54 H          -6.9543    2.6792   59.9575 H       1  UNL         0.0623
     55 H          -5.5738    4.0200   58.3765 H       1  UNL         0.0623
     56 H          -5.6423    3.5363   55.9433 H       1  UNL         0.0626
     57 H          -9.5780    2.7593   55.3041 H       1  UNL         0.0643
     58 H         -11.8281    1.9746   54.5379 H       1  UNL         0.0624
     59 H         -11.9550   -0.0087   53.0003 H       1  UNL         0.0639
     60 H          -9.8155   -1.1280   52.2919 H       1  UNL         0.0840
@<TRIPOS>BOND
     1     1     2   ar
     2     1     6   ar
     3     1    33    1
     4     2     3   ar
     5     2    34    1
     6     3     4   ar
     7     3    35    1
     8     4     5   ar
     9     4     8    1
    10     5     6   ar
    11     5     7    1
    12     6    36    1
    13     8     9    1
    14     9    10    1
    15     9    37    1
    16     9    38    1
    17    10    11    1
    18    10    39    1
    19    10    40    1
    20    11    12    1
    21    11    16    1
    22    12    13    1
    23    12    41    1
    24    12    42    1
    25    13    14    1
    26    13    43    1
    27    13    44    1
    28    14    15    1
    29    14    17    1
    30    14    45    1
    31    15    16    1
    32    15    46    1
    33    15    47    1
    34    16    48    1
    35    16    49    1
    36    17    18    2
    37    17    19   am
    38    19    20    1
    39    19    50    1
    40    20    21    1
    41    20    27    1
    42    20    51    1
    43    21    22   ar
    44    21    26   ar
    45    22    23   ar
    46    22    52    1
    47    23    24   ar
    48    23    53    1
    49    24    25   ar
    50    24    54    1
    51    25    26   ar
    52    25    55    1
    53    26    56    1
    54    27    28   ar
    55    27    32   ar
    56    28    29   ar
    57    28    57    1
    58    29    30   ar
    59    29    58    1
    60    30    31   ar
    61    30    59    1
    62    31    32   ar
    63    31    60    1
@<TRIPOS>SUBSTRUCTURE
     1 UNL         1 TEMP              0 ****  ****    0 ROOT


##########                                Name:    ZINC000668548901
##########                DOCK_Rotatable_Bonds:                   9
##########                         Heavy_Atoms:                  26
##########                    Molecular_Weight:             374.464
##########                DOCK_Rotatable_Bonds:                   9
##########                       Formal_Charge:         3.53903e-07
##########                     HBond_Acceptors:                   8
##########                        HBond_Donors:                   3
##########                         Heavy_Atoms:                  26
##########                          Grid_Score:          -40.019043
##########                     Grid_vdw_energy:          -37.747967
##########                      Grid_es_energy:           -2.271074
##########           Internal_energy_repulsive:           14.941993

@<TRIPOS>MOLECULE
ZINC000668548901
 48 50 1 0 0
SMALL
USER_CHARGES


@<TRIPOS>ATOM
      1 O1         -4.0877    1.6355   48.9816 O.2     1  ZINC000668548901   -0.5700
      2 C2         -3.2002    1.9530   49.7496 C.2     1  ZINC000668548901    0.7100
      3 N3         -1.9482    1.4915   49.5603 N.am    1  ZINC000668548901   -0.6800
      4 C4         -1.6716    0.6447   48.4859 C.ar    1  ZINC000668548901    0.2200
      5 C5         -1.0578   -0.5923   48.6898 C.ar    1  ZINC000668548901   -0.1700
      6 C6         -0.7995   -1.4028   47.6052 C.ar    1  ZINC000668548901    0.1200
      7 N7         -1.1238   -1.0244   46.3829 N.ar    1  ZINC000668548901   -0.4300
      8 C8         -1.7077    0.1417   46.1446 C.ar    1  ZINC000668548901    0.1100
      9 S9         -2.1170    0.5904   44.4906 S.3     1  ZINC000668548901    0.0900
     10 C10        -0.5422    0.6958   43.7072 C.ar    1  ZINC000668548901    0.0900
     11 C11         0.4495    1.5007   44.2584 C.ar    1  ZINC000668548901   -0.1500
     12 C12         1.6813    1.5737   43.6332 C.ar    1  ZINC000668548901   -0.0700
     13 C13         1.8806    0.8367   42.4734 C.ar    1  ZINC000668548901   -0.1700
     14 C14         0.8516    0.0581   41.9814 C.ar    1  ZINC000668548901    0.1000
     15 N15        -0.3115    0.0036   42.6016 N.ar    1  ZINC000668548901   -0.4200
     16 C16        -2.0058    1.0102   47.1861 C.ar    1  ZINC000668548901   -0.1800
     17 N17        -3.4674    2.7707   50.7871 N.am    1  ZINC000668548901   -0.7200
     18 C18        -4.8283    3.2724   50.9929 C.3     1  ZINC000668548901    0.1700
     19 H19        -5.3453    3.3236   50.0346 H       1  ZINC000668548901    0.1000
     20 C20        -4.7685    4.6687   51.6155 C.3     1  ZINC000668548901    0.0600
     21 O21        -3.8626    5.4844   50.8699 O.3     1  ZINC000668548901   -0.5700
     22 C22        -5.5837    2.3279   51.9301 C.3     1  ZINC000668548901   -0.1300
     23 H23        -4.8981    1.9345   52.6807 H       1  ZINC000668548901    0.1000
     24 C24        -6.1764    1.1701   51.1213 C.3     1  ZINC000668548901   -0.1200
     25 C25        -6.9945    0.2745   52.0567 C.3     1  ZINC000668548901   -0.1600
     26 C26        -8.0737    1.1168   52.7422 C.3     1  ZINC000668548901    0.0600
     27 O27        -7.4569    2.1935   53.4509 O.3     1  ZINC000668548901   -0.3800
     28 C28        -6.7163    3.0913   52.6216 C.3     1  ZINC000668548901    0.0700
     29 H29        -1.2393    1.7480   50.1707 H       1  ZINC000668548901    0.4100
     30 H30        -0.7880   -0.9105   49.6861 H       1  ZINC000668548901    0.1500
     31 H31        -0.3248   -2.3609   47.7577 H       1  ZINC000668548901    0.1600
     32 H32         0.2602    2.0611   45.1620 H       1  ZINC000668548901    0.1400
     33 H33         2.4702    2.1905   44.0378 H       1  ZINC000668548901    0.1400
     34 H34         2.8307    0.8722   41.9611 H       1  ZINC000668548901    0.1400
     35 H35         1.0023   -0.5164   41.0795 H       1  ZINC000668548901    0.1600
     36 H36        -2.4816    1.9595   46.9891 H       1  ZINC000668548901    0.1400
     37 H37        -2.7585    3.0272   51.3975 H       1  ZINC000668548901    0.4000
     38 H38        -5.7616    5.1177   51.5965 H       1  ZINC000668548901    0.0500
     39 H39        -4.4240    4.5921   52.6468 H       1  ZINC000668548901    0.0600
     40 H40        -4.1038    5.5911   49.9396 H       1  ZINC000668548901    0.3800
     41 H41        -6.8227    1.5658   50.3378 H       1  ZINC000668548901    0.0700
     42 H42        -5.3709    0.5889   50.6723 H       1  ZINC000668548901    0.0700
     43 H43        -7.4656   -0.5212   51.4795 H       1  ZINC000668548901    0.0800
     44 H44        -6.3385   -0.1605   52.8106 H       1  ZINC000668548901    0.0700
     45 H45        -8.7534    1.5184   51.9906 H       1  ZINC000668548901    0.0500
     46 H46        -8.6316    0.4937   53.4412 H       1  ZINC000668548901    0.1000
     47 H47        -6.2976    3.8899   53.2339 H       1  ZINC000668548901    0.1000
     48 H48        -7.3773    3.5192   51.8681 H       1  ZINC000668548901    0.0500
@<TRIPOS>BOND
     1     1     2    2
     2     2     3   am
     3     2    17   am
     4     3     4    1
     5     3    29    1
     6     4    16   ar
     7     4     5   ar
     8     5     6   ar
     9     5    30    1
    10     6     7   ar
    11     6    31    1
    12     7     8   ar
    13     8     9    1
    14     8    16   ar
    15     9    10    1
    16    10    15   ar
    17    10    11   ar
    18    11    12   ar
    19    11    32    1
    20    12    13   ar
    21    12    33    1
    22    13    14   ar
    23    13    34    1
    24    14    15   ar
    25    14    35    1
    26    16    36    1
    27    17    18    1
    28    17    37    1
    29    18    19    1
    30    18    20    1
    31    18    22    1
    32    20    21    1
    33    20    38    1
    34    20    39    1
    35    21    40    1
    36    22    23    1
    37    22    28    1
    38    22    24    1
    39    24    25    1
    40    24    41    1
    41    24    42    1
    42    25    26    1
    43    25    43    1
    44    25    44    1
    45    26    27    1
    46    26    45    1
    47    26    46    1
    48    27    28    1
    49    28    47    1
    50    28    48    1
@<TRIPOS>SUBSTRUCTURE
     1 ZINC000668548901        1 TEMP              0 ****  ****    0 ROOT


##########                                Name:    ZINC000150894060
##########                DOCK_Rotatable_Bonds:                  10
##########                         Heavy_Atoms:                  27
##########                    Molecular_Weight:              366.42
##########                DOCK_Rotatable_Bonds:                  10
##########                       Formal_Charge:        -6.70552e-07
##########                     HBond_Acceptors:                   7
##########                        HBond_Donors:                   2
##########                         Heavy_Atoms:                  27
##########                          Grid_Score:          -39.903057
##########                     Grid_vdw_energy:          -38.891407
##########                      Grid_es_energy:           -1.011650
##########           Internal_energy_repulsive:           11.068613

@<TRIPOS>MOLECULE
ZINC000150894060
 49 51 1 0 0
SMALL
USER_CHARGES


@<TRIPOS>ATOM
      1 C1         -1.2783    0.4969   45.9384 C.3     1  ZINC000150894060   -0.1000
      2 C2         -1.0916    0.0514   47.3660 C.2     1  ZINC000150894060   -0.0800
      3 C3         -1.7597    0.5211   48.4602 C.2     1  ZINC000150894060   -0.1000
      4 C4         -2.7960    1.5589   48.4575 C.2     1  ZINC000150894060    0.6100
      5 O5         -3.1181    2.0943   47.4132 O.2     1  ZINC000150894060   -0.5100
      6 N6         -3.3914    1.9197   49.6114 N.am    1  ZINC000150894060   -0.7200
      7 C7         -4.4279    2.9551   49.6084 C.3     1  ZINC000150894060    0.1200
      8 C8         -5.3143    2.7930   50.8449 C.3     1  ZINC000150894060   -0.1500
      9 C9         -6.0166    1.4346   50.7943 C.3     1  ZINC000150894060    0.1200
     10 N10        -6.9395    1.3196   51.9263 N.am    1  ZINC000150894060   -0.7300
     11 C11        -7.3490    0.1045   52.3411 C.2     1  ZINC000150894060    0.5600
     12 O12        -6.9514   -0.8961   51.7771 O.2     1  ZINC000150894060   -0.5300
     13 C13        -8.2816   -0.0115   53.4824 C.ar    1  ZINC000150894060   -0.1300
     14 C14        -9.3083   -0.9566   53.4553 C.ar    1  ZINC000150894060   -0.0900
     15 C15       -10.1748   -1.0601   54.5238 C.ar    1  ZINC000150894060   -0.0900
     16 C16       -10.0282   -0.2292   55.6204 C.ar    1  ZINC000150894060   -0.0800
     17 C17       -10.9788   -0.3474   56.7837 C.3     1  ZINC000150894060    0.1700
     18 N18       -10.5084   -1.3942   57.6943 N.pl3   1  ZINC000150894060   -0.3700
     19 C19       -11.0092   -2.6433   57.7944 C.2     1  ZINC000150894060    0.0500
     20 C20       -10.3025   -3.2960   58.7461 C.2     1  ZINC000150894060   -0.2700
     21 C21        -9.3366   -2.4156   59.2445 C.2     1  ZINC000150894060    0.0400
     22 N22        -9.4551   -1.2772   58.6105 N.2     1  ZINC000150894060   -0.2900
     23 C23        -9.0123    0.7095   55.6537 C.ar    1  ZINC000150894060   -0.1100
     24 C24        -8.1357    0.8198   54.5942 C.ar    1  ZINC000150894060   -0.0600
     25 O25        -1.2994   -0.1368   49.5444 O.3     1  ZINC000150894060   -0.1700
     26 C26        -0.3575   -1.0110   49.1673 C.2     1  ZINC000150894060    0.0000
     27 C27        -0.2016   -0.9310   47.8275 C.2     1  ZINC000150894060   -0.2300
     28 H28        -2.0477   -0.1132   45.4651 H       1  ZINC000150894060    0.0800
     29 H29        -1.5828    1.5433   45.9212 H       1  ZINC000150894060    0.0900
     30 H30        -0.3395    0.3826   45.3964 H       1  ZINC000150894060    0.0700
     31 H31        -3.1338    1.4937   50.4440 H       1  ZINC000150894060    0.4100
     32 H32        -3.9587    3.9388   49.6240 H       1  ZINC000150894060    0.0800
     33 H33        -5.0366    2.8572   48.7096 H       1  ZINC000150894060    0.0800
     34 H34        -4.6994    2.8509   51.7429 H       1  ZINC000150894060    0.0800
     35 H35        -6.0604    3.5874   50.8636 H       1  ZINC000150894060    0.0800
     36 H36        -6.5734    1.3480   49.8613 H       1  ZINC000150894060    0.0800
     37 H37        -5.2735    0.6392   50.8492 H       1  ZINC000150894060    0.0800
     38 H38        -7.2558    2.1181   52.3772 H       1  ZINC000150894060    0.4000
     39 H39        -9.4243   -1.6054   52.5998 H       1  ZINC000150894060    0.1300
     40 H40       -10.9697   -1.7910   54.5041 H       1  ZINC000150894060    0.1300
     41 H41       -11.0230    0.6033   57.3149 H       1  ZINC000150894060    0.1100
     42 H42       -11.9723   -0.6049   56.4164 H       1  ZINC000150894060    0.1000
     43 H43       -11.8277   -3.0492   57.2185 H       1  ZINC000150894060    0.1700
     44 H44       -10.4572   -4.3162   59.0648 H       1  ZINC000150894060    0.1500
     45 H45        -8.6144   -2.6386   60.0159 H       1  ZINC000150894060    0.1800
     46 H46        -8.9031    1.3550   56.5127 H       1  ZINC000150894060    0.1300
     47 H47        -7.3430    1.5527   54.6216 H       1  ZINC000150894060    0.1400
     48 H48         0.1850   -1.6738   49.8253 H       1  ZINC000150894060    0.2100
     49 H49         0.4837   -1.5095   47.2257 H       1  ZINC000150894060    0.1600
@<TRIPOS>BOND
     1     1     2    1
     2     1    28    1
     3     1    29    1
     4     1    30    1
     5     2    27    1
     6     2     3    2
     7     3     4    1
     8     3    25    1
     9     4     5    2
    10     4     6   am
    11     6     7    1
    12     6    31    1
    13     7     8    1
    14     7    32    1
    15     7    33    1
    16     8     9    1
    17     8    34    1
    18     8    35    1
    19     9    10    1
    20     9    36    1
    21     9    37    1
    22    10    11   am
    23    10    38    1
    24    11    12    2
    25    11    13    1
    26    13    24   ar
    27    13    14   ar
    28    14    15   ar
    29    14    39    1
    30    15    16   ar
    31    15    40    1
    32    16    17    1
    33    16    23   ar
    34    17    18    1
    35    17    41    1
    36    17    42    1
    37    18    22    1
    38    18    19    1
    39    19    20    2
    40    19    43    1
    41    20    21    1
    42    20    44    1
    43    21    22    2
    44    21    45    1
    45    23    24   ar
    46    23    46    1
    47    24    47    1
    48    25    26    1
    49    26    27    2
    50    26    48    1
    51    27    49    1
@<TRIPOS>SUBSTRUCTURE
     1 ZINC000150894060        1 TEMP              0 ****  ****    0 ROOT


##########                                Name:    ZINC001513543414
##########                DOCK_Rotatable_Bonds:                   6
##########                         Heavy_Atoms:                  26
##########                    Molecular_Weight:             364.488
##########                DOCK_Rotatable_Bonds:                   6
##########                       Formal_Charge:         -0.00999974
##########                     HBond_Acceptors:                   7
##########                        HBond_Donors:                   0
##########                         Heavy_Atoms:                  26
##########                          Grid_Score:          -39.895218
##########                     Grid_vdw_energy:          -37.330364
##########                      Grid_es_energy:           -2.564854
##########           Internal_energy_repulsive:           27.430433

@<TRIPOS>MOLECULE
ZINC001513543414
 58 61 1 0 0
SMALL
USER_CHARGES


@<TRIPOS>ATOM
      1 C1          0.5144    3.5299   51.4925 C.3     1  ZINC001513543414   -0.1500
      2 C2          1.6362    2.8398   50.7139 C.3     1  ZINC001513543414   -0.1200
      3 C3          1.0818    2.2941   49.3965 C.3     1  ZINC001513543414    0.1100
      4 C4          0.7274    3.4534   48.4629 C.3     1  ZINC001513543414   -0.1500
      5 C5          2.1298    1.3806   48.7255 C.3     1  ZINC001513543414   -0.1500
      6 C6          1.2508    0.2348   48.1540 C.3     1  ZINC001513543414   -0.1500
      7 C7          0.1446    0.1456   49.2352 C.3     1  ZINC001513543414    0.0700
      8 H8          0.4864   -0.4560   50.0775 H       1  ZINC001513543414    0.0800
      9 C9         -1.1323   -0.4519   48.6405 C.3     1  ZINC001513543414    0.1100
     10 N10        -1.8220    0.5651   47.8430 N.pl3   1  ZINC001513543414   -0.4600
     11 C11        -2.7524    1.4665   48.2809 C.2     1  ZINC001513543414    0.1900
     12 C12        -3.2687    1.6041   49.6899 C.3     1  ZINC001513543414    0.1800
     13 H13        -2.7578    0.9027   50.3495 H       1  ZINC001513543414    0.1000
     14 C14        -3.0743    3.0561   50.1945 C.3     1  ZINC001513543414   -0.1500
     15 C15        -4.1818    3.1418   51.2800 C.3     1  ZINC001513543414   -0.1500
     16 C16        -5.2964    2.2572   50.6812 C.3     1  ZINC001513543414    0.0500
     17 O17        -4.6870    1.3793   49.7254 O.3     1  ZINC001513543414   -0.3500
     18 N18        -3.1092    2.1849   47.2540 N.2     1  ZINC001513543414   -0.2600
     19 N19        -2.4725    1.8018   46.2054 N.2     1  ZINC001513543414   -0.3100
     20 C20        -1.6649    0.8135   46.5105 C.2     1  ZINC001513543414    0.3400
     21 N21        -0.8187    0.1429   45.6417 N.3     1  ZINC001513543414   -0.4500
     22 C22        -0.0041    1.0941   44.8559 C.3     1  ZINC001513543414    0.0500
     23 C23         0.1787    0.4129   43.4767 C.3     1  ZINC001513543414   -0.1500
     24 C24        -1.2014   -0.2671   43.2777 C.3     1  ZINC001513543414    0.0700
     25 H25        -1.9283    0.4438   42.8847 H       1  ZINC001513543414    0.0800
     26 O26        -1.0868   -1.3996   42.4135 O.3     1  ZINC001513543414   -0.3800
     27 C27        -0.4870   -1.1080   41.1497 C.3     1  ZINC001513543414    0.0300
     28 C28        -1.5833   -0.7037   44.7077 C.3     1  ZINC001513543414    0.0600
     29 O29        -0.0839    1.5014   49.6510 O.3     1  ZINC001513543414   -0.3600
     30 H30         0.9094    3.9187   52.4310 H       1  ZINC001513543414    0.0500
     31 H31         0.1127    4.3515   50.8994 H       1  ZINC001513543414    0.0500
     32 H32        -0.2781    2.8114   51.7016 H       1  ZINC001513543414    0.0600
     33 H33         2.4287    3.5583   50.5047 H       1  ZINC001513543414    0.0700
     34 H34         2.0379    2.0183   51.3070 H       1  ZINC001513543414    0.0600
     35 H35         1.6237    4.0360   48.2507 H       1  ZINC001513543414    0.0700
     36 H36         0.3215    3.0587   47.5314 H       1  ZINC001513543414    0.0600
     37 H37        -0.0156    4.0912   48.9416 H       1  ZINC001513543414    0.0700
     38 H38         2.6484    1.9079   47.9248 H       1  ZINC001513543414    0.0900
     39 H39         2.8373    0.9968   49.4606 H       1  ZINC001513543414    0.0800
     40 H40         0.8321    0.5070   47.1851 H       1  ZINC001513543414    0.0800
     41 H41         1.8130   -0.6968   48.0893 H       1  ZINC001513543414    0.0900
     42 H42        -0.8752   -1.2993   48.0050 H       1  ZINC001513543414    0.1000
     43 H43        -1.7859   -0.7870   49.4459 H       1  ZINC001513543414    0.1100
     44 H44        -2.0847    3.1909   50.6314 H       1  ZINC001513543414    0.0900
     45 H45        -3.2504    3.7765   49.3958 H       1  ZINC001513543414    0.0900
     46 H46        -3.8291    2.7335   52.2271 H       1  ZINC001513543414    0.0800
     47 H47        -4.5256    4.1688   51.4031 H       1  ZINC001513543414    0.0900
     48 H48        -5.7680    1.6720   51.4706 H       1  ZINC001513543414    0.0700
     49 H49        -6.0404    2.8830   50.1884 H       1  ZINC001513543414    0.0700
     50 H50        -0.5303    2.0421   44.7441 H       1  ZINC001513543414    0.0600
     51 H51         0.9633    1.2500   45.3333 H       1  ZINC001513543414    0.0900
     52 H52         0.3657    1.1521   42.6978 H       1  ZINC001513543414    0.0800
     53 H53         0.9777   -0.3277   43.5099 H       1  ZINC001513543414    0.0900
     54 H54        -0.4362   -2.0186   40.5529 H       1  ZINC001513543414    0.0900
     55 H55        -1.0865   -0.3633   40.6263 H       1  ZINC001513543414    0.0400
     56 H56         0.5194   -0.7195   41.3062 H       1  ZINC001513543414    0.0400
     57 H57        -1.3219   -1.7513   44.8578 H       1  ZINC001513543414    0.1000
     58 H58        -2.6520   -0.5595   44.8664 H       1  ZINC001513543414    0.0900
@<TRIPOS>BOND
     1     1     2    1
     2     1    30    1
     3     1    31    1
     4     1    32    1
     5     2     3    1
     6     2    33    1
     7     2    34    1
     8     3    29    1
     9     3     4    1
    10     3     5    1
    11     4    35    1
    12     4    36    1
    13     4    37    1
    14     5     6    1
    15     5    38    1
    16     5    39    1
    17     6     7    1
    18     6    40    1
    19     6    41    1
    20     7     8    1
    21     7     9    1
    22     7    29    1
    23     9    10    1
    24     9    42    1
    25     9    43    1
    26    10    20    1
    27    10    11    1
    28    11    12    1
    29    11    18    2
    30    12    13    1
    31    12    17    1
    32    12    14    1
    33    14    15    1
    34    14    44    1
    35    14    45    1
    36    15    16    1
    37    15    46    1
    38    15    47    1
    39    16    17    1
    40    16    48    1
    41    16    49    1
    42    18    19    1
    43    19    20    2
    44    20    21    1
    45    21    28    1
    46    21    22    1
    47    22    23    1
    48    22    50    1
    49    22    51    1
    50    23    24    1
    51    23    52    1
    52    23    53    1
    53    24    25    1
    54    24    26    1
    55    24    28    1
    56    26    27    1
    57    27    54    1
    58    27    55    1
    59    27    56    1
    60    28    57    1
    61    28    58    1
@<TRIPOS>SUBSTRUCTURE
     1 ZINC001513543414        1 TEMP              0 ****  ****    0 ROOT


##########                                Name:    ZINC000462219577
##########                DOCK_Rotatable_Bonds:                   8
##########                         Heavy_Atoms:                  31
##########                    Molecular_Weight:             418.539
##########                DOCK_Rotatable_Bonds:                   8
##########                       Formal_Charge:         -0.00999914
##########                     HBond_Acceptors:                   6
##########                        HBond_Donors:                   2
##########                         Heavy_Atoms:                  31
##########                          Grid_Score:          -39.650711
##########                     Grid_vdw_energy:          -38.680931
##########                      Grid_es_energy:           -0.969780
##########           Internal_energy_repulsive:           35.738018

@<TRIPOS>MOLECULE
ZINC000462219577
 61 64 1 0 0
SMALL
USER_CHARGES


@<TRIPOS>ATOM
      1 C1         -7.7674    3.5141   55.9258 C.3     1  ZINC000462219577   -0.0700
      2 C2         -7.7791    3.2944   54.4349 C.2     1  ZINC000462219577    0.0800
      3 N3         -8.6737    3.7560   53.5986 N.2     1  ZINC000462219577   -0.2900
      4 N4         -8.3280    3.3317   52.3091 N.pl3   1  ZINC000462219577   -0.3200
      5 C5         -9.0318    3.6159   51.1306 C.ar    1  ZINC000462219577    0.1500
      6 C6        -10.3919    3.3485   51.0510 C.ar    1  ZINC000462219577   -0.1100
      7 C7        -11.0826    3.6296   49.8884 C.ar    1  ZINC000462219577   -0.1000
      8 C8        -10.4208    4.1764   48.8043 C.ar    1  ZINC000462219577   -0.1200
      9 C9         -9.0662    4.4433   48.8804 C.ar    1  ZINC000462219577   -0.1000
     10 C10        -8.3714    4.1705   50.0426 C.ar    1  ZINC000462219577   -0.1300
     11 C11        -7.1948    2.5996   52.4025 C.2     1  ZINC000462219577    0.0900
     12 C12        -6.4636    1.9439   51.2596 C.3     1  ZINC000462219577   -0.0800
     13 C13        -5.0132    2.4305   51.2361 C.3     1  ZINC000462219577    0.1700
     14 H14        -4.4429    1.9102   52.0055 H       1  ZINC000462219577    0.1000
     15 C15        -4.9760    3.9364   51.5043 C.3     1  ZINC000462219577   -0.1600
     16 N16        -4.4267    2.1540   49.9224 N.am    1  ZINC000462219577   -0.7400
     17 C17        -3.0927    2.2380   49.7488 C.2     1  ZINC000462219577    0.7100
     18 O18        -2.3761    2.5419   50.6828 O.2     1  ZINC000462219577   -0.5800
     19 N19        -2.5533    1.9851   48.5398 N.am    1  ZINC000462219577   -0.7400
     20 C20        -1.1032    2.0748   48.3515 C.3     1  ZINC000462219577    0.1600
     21 H21        -0.7531    3.0541   48.6776 H       1  ZINC000462219577    0.1000
     22 C22        -0.4112    0.9833   49.1739 C.3     1  ZINC000462219577   -0.1700
     23 C23        -0.8511   -0.3894   48.6580 C.3     1  ZINC000462219577    0.0700
     24 O24        -0.5356   -0.4980   47.2685 O.3     1  ZINC000462219577   -0.3700
     25 C25        -1.1915    0.4676   46.4441 C.3     1  ZINC000462219577    0.1400
     26 H26        -2.2712    0.3657   46.5537 H       1  ZINC000462219577    0.0600
     27 C27        -0.8090    0.2415   45.0040 C.ar    1  ZINC000462219577   -0.0900
     28 C28         0.2837    0.8970   44.4680 C.ar    1  ZINC000462219577   -0.0900
     29 C29         0.6345    0.6896   43.1471 C.ar    1  ZINC000462219577   -0.1200
     30 C30        -0.1072   -0.1733   42.3623 C.ar    1  ZINC000462219577   -0.1200
     31 C31        -1.1995   -0.8294   42.8985 C.ar    1  ZINC000462219577   -0.1200
     32 C32        -1.5477   -0.6254   44.2206 C.ar    1  ZINC000462219577   -0.1100
     33 C33        -0.7656    1.8769   46.8706 C.3     1  ZINC000462219577   -0.1500
     34 C34        -6.8321    2.5669   53.7058 C.2     1  ZINC000462219577   -0.2600
     35 H35        -7.2086    4.4214   56.1550 H       1  ZINC000462219577    0.0800
     36 H36        -8.7911    3.6171   56.2859 H       1  ZINC000462219577    0.0700
     37 H37        -7.2942    2.6626   56.4148 H       1  ZINC000462219577    0.0800
     38 H38       -10.9092    2.9210   51.8971 H       1  ZINC000462219577    0.1300
     39 H39       -12.1406    3.4219   49.8259 H       1  ZINC000462219577    0.1300
     40 H40       -10.9630    4.3950   47.8962 H       1  ZINC000462219577    0.1300
     41 H41        -8.5518    4.8696   48.0319 H       1  ZINC000462219577    0.1300
     42 H42        -7.3134    4.3793   50.1015 H       1  ZINC000462219577    0.1300
     43 H43        -6.4818    0.8619   51.3896 H       1  ZINC000462219577    0.0900
     44 H44        -6.9497    2.2052   50.3196 H       1  ZINC000462219577    0.1100
     45 H45        -5.5464    4.4567   50.7349 H       1  ZINC000462219577    0.0600
     46 H46        -5.4124    4.1421   52.4817 H       1  ZINC000462219577    0.0700
     47 H47        -3.9428    4.2830   51.4875 H       1  ZINC000462219577    0.0700
     48 H48        -4.9983    1.9103   49.1776 H       1  ZINC000462219577    0.3900
     49 H49        -3.1252    1.7438   47.7944 H       1  ZINC000462219577    0.3900
     50 H50         0.6696    1.0812   49.0728 H       1  ZINC000462219577    0.0800
     51 H51        -0.6908    1.0850   50.2225 H       1  ZINC000462219577    0.0800
     52 H52        -0.3290   -1.1700   49.2114 H       1  ZINC000462219577    0.1000
     53 H53        -1.9263   -0.5024   48.7966 H       1  ZINC000462219577    0.0500
     54 H54         0.8632    1.5711   45.0812 H       1  ZINC000462219577    0.1300
     55 H55         1.4879    1.2021   42.7282 H       1  ZINC000462219577    0.1200
     56 H56         0.1665   -0.3348   41.3301 H       1  ZINC000462219577    0.1200
     57 H57        -1.7791   -1.5034   42.2852 H       1  ZINC000462219577    0.1200
     58 H58        -2.4011   -1.1379   44.6395 H       1  ZINC000462219577    0.1200
     59 H59        -1.2987    2.6154   46.2718 H       1  ZINC000462219577    0.0800
     60 H60         0.3081    1.9932   46.7230 H       1  ZINC000462219577    0.0900
     61 H61        -5.9681    2.0623   54.1123 H       1  ZINC000462219577    0.1500
@<TRIPOS>BOND
     1     1     2    1
     2     1    35    1
     3     1    36    1
     4     1    37    1
     5     2    34    1
     6     2     3    2
     7     3     4    1
     8     4     5    1
     9     4    11    1
    10     5    10   ar
    11     5     6   ar
    12     6     7   ar
    13     6    38    1
    14     7     8   ar
    15     7    39    1
    16     8     9   ar
    17     8    40    1
    18     9    10   ar
    19     9    41    1
    20    10    42    1
    21    11    12    1
    22    11    34    2
    23    12    13    1
    24    12    43    1
    25    12    44    1
    26    13    14    1
    27    13    15    1
    28    13    16    1
    29    15    45    1
    30    15    46    1
    31    15    47    1
    32    16    17   am
    33    16    48    1
    34    17    18    2
    35    17    19   am
    36    19    20    1
    37    19    49    1
    38    20    21    1
    39    20    33    1
    40    20    22    1
    41    22    23    1
    42    22    50    1
    43    22    51    1
    44    23    24    1
    45    23    52    1
    46    23    53    1
    47    24    25    1
    48    25    26    1
    49    25    27    1
    50    25    33    1
    51    27    32   ar
    52    27    28   ar
    53    28    29   ar
    54    28    54    1
    55    29    30   ar
    56    29    55    1
    57    30    31   ar
    58    30    56    1
    59    31    32   ar
    60    31    57    1
    61    32    58    1
    62    33    59    1
    63    33    60    1
    64    34    61    1
@<TRIPOS>SUBSTRUCTURE
     1 ZINC000462219577        1 TEMP              0 ****  ****    0 ROOT


##########                                Name:     oleObject52.pdb
##########                DOCK_Rotatable_Bonds:                  10
##########                         Heavy_Atoms:                  38
##########                    Molecular_Weight:              533.07
##########                DOCK_Rotatable_Bonds:                  10
##########                       Formal_Charge:         0.000300027
##########                     HBond_Acceptors:                   8
##########                        HBond_Donors:                   0
##########                         Heavy_Atoms:                  38
##########                          Grid_Score:          -39.600552
##########                     Grid_vdw_energy:          -38.917995
##########                      Grid_es_energy:           -0.682558
##########           Internal_energy_repulsive:           30.570927

@<TRIPOS>MOLECULE
oleObject52.pdb
 71 74 1 0 0
SMALL
NO_CHARGES


@<TRIPOS>ATOM
      1 C          -1.3209   -0.5786   42.9318 C.ar    1  UNL        -0.0596
      2 C          -0.1044   -0.2448   42.3178 C.ar    1  UNL        -0.0314
      3 C           0.8810    0.4723   43.0293 C.ar    1  UNL         0.0800
      4 C           0.6433    0.8543   44.3701 C.ar    1  UNL         0.0089
      5 C          -0.5878    0.5162   44.9722 C.ar    1  UNL        -0.0541
      6 C          -1.5627   -0.1967   44.2584 C.ar    1  UNL        -0.0617
      7 C           1.7189    1.6391   45.1366 C.3     1  UNL         0.0953
      8 C           1.7391    3.1307   44.7586 C.ar    1  UNL         0.0684
      9 C           2.9517    3.8306   44.5369 C.ar    1  UNL        -0.0272
     10 C           2.8851    5.1912   44.1826 C.ar    1  UNL        -0.0559
     11 C           1.6305    5.8051   44.0597 C.ar    1  UNL        -0.0435
     12 C           0.4805    5.0366   44.2932 C.ar    1  UNL         0.0272
     13 N           0.5336    3.7351   44.6325 N.ar    1  UNL        -0.2587
     14 C           4.3136    3.1568   44.6536 C.3     1  UNL        -0.0379
     15 N           1.7402    1.3757   46.6039 N.am    1  UNL        -0.2917
     16 C           1.0018    2.1831   47.4758 C.2     1  UNL         0.2180
     17 O           0.1412    2.9314   47.0428 O.2     1  UNL        -0.2772
     18 C           1.0726    1.8488   48.9878 C.3     1  UNL         0.0385
     19 C           0.2360    0.5967   49.3460 C.3     1  UNL        -0.0289
     20 C          -1.2803    0.8870   49.3288 C.3     1  UNL        -0.0010
     21 N          -1.6313    2.0000   50.2412 N.4     1  UNL        -0.3010
     22 C          -0.8909    3.2451   49.9406 C.3     1  UNL        -0.0010
     23 C           0.6423    3.0324   49.8945 C.3     1  UNL        -0.0289
     24 C          -3.0843    2.2535   50.3614 C.3     1  UNL         0.0222
     25 C          -3.8406    2.1423   49.0214 C.3     1  UNL         0.0661
     26 O          -5.1752    2.6384   49.2282 O.3     1  UNL        -0.3432
     27 C          -5.9340    2.3491   50.3457 C.ar    1  UNL         0.0937
     28 C          -6.4987    1.0737   50.5574 C.ar    1  UNL        -0.0289
     29 C          -7.2641    0.8212   51.7080 C.ar    1  UNL        -0.0417
     30 C          -7.4729    1.8372   52.6566 C.ar    1  UNL         0.0537
     31 C          -6.9119    3.1089   52.4498 C.ar    1  UNL        -0.0230
     32 C          -6.1460    3.3642   51.3001 C.ar    1  UNL         0.0721
     33 CL         -5.4629    4.9640   51.0776 Cl      1  UNL        -0.0814
     34 C          -8.2551    1.5771   53.8308 C.1     1  UNL         0.0992
     35 N          -8.8882    1.3577   54.7733 N.1     1  UNL        -0.1924
     36 C           2.5959    0.2650   47.0749 C.3     1  UNL         0.0037
     37 O           2.0856    0.8210   42.4425 O.3     1  UNL        -0.3490
     38 C           2.4378    0.4954   41.0874 C.3     1  UNL         0.0422
     39 H          -2.0755   -1.1304   42.3788 H       1  UNL         0.0624
     40 H           0.0595   -0.5481   41.2893 H       1  UNL         0.0651
     41 H          -0.7993    0.8037   45.9963 H       1  UNL         0.0627
     42 H          -2.5052   -0.4521   44.7341 H       1  UNL         0.0623
     43 H           2.6656    1.2319   44.7647 H       1  UNL         0.0627
     44 H           3.7904    5.7630   43.9999 H       1  UNL         0.0627
     45 H           1.5498    6.8526   43.7848 H       1  UNL         0.0639
     46 H          -0.5130    5.4740   44.2036 H       1  UNL         0.0840
     47 H           4.4146    2.6310   45.6089 H       1  UNL         0.0280
     48 H           5.1326    3.8841   44.5926 H       1  UNL         0.0280
     49 H           4.4589    2.4266   43.8476 H       1  UNL         0.0280
     50 H           2.1188    1.6409   49.2357 H       1  UNL         0.0402
     51 H           0.5157    0.2568   50.3516 H       1  UNL         0.0288
     52 H           0.4655   -0.2311   48.6652 H       1  UNL         0.0288
     53 H          -1.8009   -0.0320   49.6219 H       1  UNL         0.0431
     54 H          -1.5904    1.1362   48.3052 H       1  UNL         0.0431
     55 H          -1.1125    4.0015   50.7044 H       1  UNL         0.0431
     56 H          -1.2313    3.6485   48.9787 H       1  UNL         0.0431
     57 H           0.9909    2.8345   50.9164 H       1  UNL         0.0288
     58 H           1.1380    3.9565   49.5706 H       1  UNL         0.0288
     59 H          -3.2556    3.2506   50.7880 H       1  UNL         0.0455
     60 H          -3.5216    1.5204   51.0518 H       1  UNL         0.0455
     61 H          -3.8701    1.0916   48.7057 H       1  UNL         0.0586
     62 H          -3.3359    2.7370   48.2505 H       1  UNL         0.0586
     63 H          -6.3518    0.2722   49.8406 H       1  UNL         0.0651
     64 H          -7.6943   -0.1653   51.8610 H       1  UNL         0.0638
     65 H          -7.0688    3.8997   53.1787 H       1  UNL         0.0653
     66 H           3.4346    0.1026   46.3883 H       1  UNL         0.0433
     67 H           2.0076   -0.6583   47.1432 H       1  UNL         0.0433
     68 H           3.0236    0.5008   48.0562 H       1  UNL         0.0433
     69 H           3.4362    0.8882   40.8593 H       1  UNL         0.0535
     70 H           1.7205    0.9417   40.3869 H       1  UNL         0.0535
     71 H           2.4520   -0.5925   40.9451 H       1  UNL         0.0535
@<TRIPOS>BOND
     1     1     2   ar
     2     1     6   ar
     3     1    39    1
     4     2     3   ar
     5     2    40    1
     6     3     4   ar
     7     3    37    1
     8     4     5   ar
     9     4     7    1
    10     5     6   ar
    11     5    41    1
    12     6    42    1
    13     7     8    1
    14     7    15    1
    15     7    43    1
    16     8     9   ar
    17     8    13   ar
    18     9    10   ar
    19     9    14    1
    20    10    11   ar
    21    10    44    1
    22    11    12   ar
    23    11    45    1
    24    12    13   ar
    25    12    46    1
    26    14    47    1
    27    14    48    1
    28    14    49    1
    29    15    16   am
    30    15    36    1
    31    16    17    2
    32    16    18    1
    33    18    19    1
    34    18    23    1
    35    18    50    1
    36    19    20    1
    37    19    51    1
    38    19    52    1
    39    20    21    1
    40    20    53    1
    41    20    54    1
    42    21    22    1
    43    21    24    1
    44    22    23    1
    45    22    55    1
    46    22    56    1
    47    23    57    1
    48    23    58    1
    49    24    25    1
    50    24    59    1
    51    24    60    1
    52    25    26    1
    53    25    61    1
    54    25    62    1
    55    26    27    1
    56    27    28   ar
    57    27    32   ar
    58    28    29   ar
    59    28    63    1
    60    29    30   ar
    61    29    64    1
    62    30    31   ar
    63    30    34    1
    64    31    32   ar
    65    31    65    1
    66    32    33    1
    67    34    35    3
    68    36    66    1
    69    36    67    1
    70    36    68    1
    71    37    38    1
    72    38    69    1
    73    38    70    1
    74    38    71    1
@<TRIPOS>SUBSTRUCTURE
     1 UNL         1 TEMP              0 ****  ****    0 ROOT


##########                                Name:     oleObject70.pdb
##########                DOCK_Rotatable_Bonds:                   9
##########                         Heavy_Atoms:                  35
##########                    Molecular_Weight:             504.458
##########                DOCK_Rotatable_Bonds:                   9
##########                       Formal_Charge:          0.00010002
##########                     HBond_Acceptors:                   6
##########                        HBond_Donors:                   2
##########                         Heavy_Atoms:                  35
##########                          Grid_Score:          -39.597588
##########                     Grid_vdw_energy:          -39.567837
##########                      Grid_es_energy:           -0.029749
##########           Internal_energy_repulsive:           14.773536

@<TRIPOS>MOLECULE
oleObject70.pdb
 62 65 1 0 0
SMALL
NO_CHARGES


@<TRIPOS>ATOM
      1 C          -8.2224    0.1275   60.2825 C.ar    1  UNL        -0.0620
      2 C          -8.8889   -1.0988   60.1485 C.ar    1  UNL        -0.0590
      3 C          -9.4343   -1.4904   58.9103 C.ar    1  UNL        -0.0456
      4 C          -9.2999   -0.6407   57.7827 C.ar    1  UNL        -0.0187
      5 C          -8.6391    0.5975   57.9382 C.ar    1  UNL        -0.0565
      6 C          -8.1019    0.9785   59.1766 C.ar    1  UNL        -0.0619
      7 C          -9.8825   -1.0350   56.4137 C.3     1  UNL         0.0909
      8 C         -11.4097   -0.8763   56.3154 C.ar    1  UNL         0.0681
      9 C         -12.0312    0.3982   56.3360 C.ar    1  UNL        -0.0272
     10 C         -13.4347    0.4603   56.2461 C.ar    1  UNL        -0.0559
     11 C         -14.1665   -0.7307   56.1353 C.ar    1  UNL        -0.0435
     12 C         -13.4697   -1.9477   56.1152 C.ar    1  UNL         0.0272
     13 N         -12.1284   -2.0175   56.2002 N.ar    1  UNL        -0.2587
     14 C         -11.2345    1.6925   56.4575 C.3     1  UNL        -0.0379
     15 N          -9.1258   -0.4586   55.2804 N.am    1  UNL        -0.2987
     16 C          -9.3284   -0.7171   53.9304 C.2     1  UNL         0.2437
     17 O         -10.1966   -1.4724   53.5282 O.2     1  UNL        -0.2719
     18 C          -8.4149    0.0045   52.9685 C.ar    1  UNL         0.0371
     19 C          -7.6973   -0.6763   51.9593 C.ar    1  UNL        -0.0494
     20 C          -6.8571    0.0268   51.0802 C.ar    1  UNL        -0.0570
     21 C          -6.7165    1.4200   51.1909 C.ar    1  UNL        -0.0341
     22 C          -7.4279    2.1050   52.1898 C.ar    1  UNL        -0.0570
     23 C          -8.2675    1.4034   53.0701 C.ar    1  UNL        -0.0494
     24 C          -5.8124    2.1782   50.2336 C.3     1  UNL         0.0208
     25 N          -4.4937    2.4288   50.8290 N.4     1  UNL        -0.3086
     26 C          -3.6066    3.2399   49.9848 C.3     1  UNL         0.0223
     27 C          -2.1447    2.8679   50.1924 C.ar    1  UNL        -0.0154
     28 C          -1.6025    1.7794   49.4825 C.ar    1  UNL        -0.0548
     29 C          -0.2560    1.4177   49.6515 C.ar    1  UNL        -0.0431
     30 C           0.5593    2.1449   50.5323 C.ar    1  UNL         0.0421
     31 C           0.0300    3.2338   51.2425 C.ar    1  UNL        -0.0245
     32 C          -1.3171    3.5968   51.0745 C.ar    1  UNL         0.0465
     33 CL         -1.9298    4.9706   51.9774 Cl      1  UNL        -0.0839
     34 CL          2.2383    1.6956   50.7431 Cl      1  UNL        -0.0843
     35 C         -10.1729   -2.8229   58.8312 C.3     1  UNL        -0.0394
     36 H          -7.8098    0.4214   61.2433 H       1  UNL         0.0623
     37 H          -8.9868   -1.7452   61.0161 H       1  UNL         0.0626
     38 H          -8.5465    1.2801   57.1002 H       1  UNL         0.0627
     39 H          -7.5975    1.9350   59.2783 H       1  UNL         0.0623
     40 H          -9.6997   -2.1091   56.3144 H       1  UNL         0.0624
     41 H         -13.9515    1.4156   56.2637 H       1  UNL         0.0627
     42 H         -15.2501   -0.7122   56.0666 H       1  UNL         0.0639
     43 H         -13.9995   -2.8956   56.0306 H       1  UNL         0.0840
     44 H         -10.7233    1.7524   57.4259 H       1  UNL         0.0280
     45 H         -11.8830    2.5738   56.3767 H       1  UNL         0.0280
     46 H         -10.4796    1.7717   55.6659 H       1  UNL         0.0280
     47 H          -8.3809    0.1836   55.5122 H       1  UNL         0.1508
     48 H          -7.7796   -1.7520   51.8423 H       1  UNL         0.0631
     49 H          -6.3161   -0.5126   50.3075 H       1  UNL         0.0626
     50 H          -7.3331    3.1833   52.2837 H       1  UNL         0.0626
     51 H          -8.8078    1.9559   53.8339 H       1  UNL         0.0631
     52 H          -6.2877    3.1316   49.9686 H       1  UNL         0.0479
     53 H          -5.6977    1.5967   49.3096 H       1  UNL         0.0479
     54 H          -4.0419    1.5358   51.0253 H       1  UNL         0.1229
     55 H          -3.7469    4.3026   50.2214 H       1  UNL         0.0480
     56 H          -3.8695    3.1059   48.9276 H       1  UNL         0.0480
     57 H          -2.2255    1.2140   48.7950 H       1  UNL         0.0627
     58 H           0.1536    0.5766   49.0991 H       1  UNL         0.0639
     59 H           0.6636    3.7974   51.9214 H       1  UNL         0.0654
     60 H         -10.3080   -3.2715   59.8234 H       1  UNL         0.0280
     61 H          -9.6192   -3.5446   58.2179 H       1  UNL         0.0280
     62 H         -11.1718   -2.6980   58.3948 H       1  UNL         0.0280
@<TRIPOS>BOND
     1     1     2   ar
     2     1     6   ar
     3     1    36    1
     4     2     3   ar
     5     2    37    1
     6     3     4   ar
     7     3    35    1
     8     4     5   ar
     9     4     7    1
    10     5     6   ar
    11     5    38    1
    12     6    39    1
    13     7     8    1
    14     7    15    1
    15     7    40    1
    16     8     9   ar
    17     8    13   ar
    18     9    10   ar
    19     9    14    1
    20    10    11   ar
    21    10    41    1
    22    11    12   ar
    23    11    42    1
    24    12    13   ar
    25    12    43    1
    26    14    44    1
    27    14    45    1
    28    14    46    1
    29    15    16   am
    30    15    47    1
    31    16    17    2
    32    16    18    1
    33    18    19   ar
    34    18    23   ar
    35    19    20   ar
    36    19    48    1
    37    20    21   ar
    38    20    49    1
    39    21    22   ar
    40    21    24    1
    41    22    23   ar
    42    22    50    1
    43    23    51    1
    44    24    25    1
    45    24    52    1
    46    24    53    1
    47    25    26    1
    48    25    54    1
    49    26    27    1
    50    26    55    1
    51    26    56    1
    52    27    28   ar
    53    27    32   ar
    54    28    29   ar
    55    28    57    1
    56    29    30   ar
    57    29    58    1
    58    30    31   ar
    59    30    34    1
    60    31    32   ar
    61    31    59    1
    62    32    33    1
    63    35    60    1
    64    35    61    1
    65    35    62    1
@<TRIPOS>SUBSTRUCTURE
     1 UNL         1 TEMP              0 ****  ****    0 ROOT


##########                                Name:    ZINC000546142192
##########                DOCK_Rotatable_Bonds:                  12
##########                         Heavy_Atoms:                  31
##########                    Molecular_Weight:             420.511
##########                DOCK_Rotatable_Bonds:                  12
##########                       Formal_Charge:          -0.0599997
##########                     HBond_Acceptors:                   7
##########                        HBond_Donors:                   2
##########                         Heavy_Atoms:                  31
##########                          Grid_Score:          -39.587723
##########                     Grid_vdw_energy:          -39.204163
##########                      Grid_es_energy:           -0.383560
##########           Internal_energy_repulsive:           13.632073

@<TRIPOS>MOLECULE
ZINC000546142192
 59 61 1 0 0
SMALL
USER_CHARGES


@<TRIPOS>ATOM
      1 C1        -10.3792   -2.0947   55.9162 C.3     1  ZINC000546142192    0.0300
      2 O2         -9.9951   -0.7018   55.7719 O.3     1  ZINC000546142192   -0.3600
      3 C3        -10.2392   -0.1219   54.5862 C.2     1  ZINC000546142192    0.4600
      4 O4        -10.8735   -0.7124   53.7442 O.2     1  ZINC000546142192   -0.5100
      5 C5         -9.7220    1.2654   54.3052 C.3     1  ZINC000546142192   -0.0800
      6 H6         -9.9370    1.5305   53.2701 H       1  ZINC000546142192    0.1100
      7 C7        -10.4069    2.2640   55.2404 C.3     1  ZINC000546142192   -0.1500
      8 C8         -8.2102    1.3028   54.5378 C.3     1  ZINC000546142192   -0.0600
      9 C9         -7.5071    1.5627   53.2303 C.ar    1  ZINC000546142192   -0.1000
     10 C10        -7.2255    2.8604   52.8446 C.ar    1  ZINC000546142192   -0.0900
     11 C11        -6.5809    3.1019   51.6471 C.ar    1  ZINC000546142192   -0.1200
     12 C12        -6.2156    2.0398   50.8305 C.ar    1  ZINC000546142192    0.1600
     13 N13        -5.5619    2.2811   49.6168 N.am    1  ZINC000546142192   -0.6900
     14 C14        -4.2385    2.0509   49.5069 C.2     1  ZINC000546142192    0.7100
     15 O15        -3.6126    1.6337   50.4621 O.2     1  ZINC000546142192   -0.5700
     16 N16        -3.6089    2.2832   48.3380 N.am    1  ZINC000546142192   -0.7400
     17 C17        -2.1701    2.0346   48.2191 C.3     1  ZINC000546142192    0.2300
     18 C18        -1.8794    1.3948   46.8859 C.2     1  ZINC000546142192    0.1800
     19 N19        -2.0195    1.9665   45.7213 N.2     1  ZINC000546142192   -0.4700
     20 C20        -1.6685    1.1012   44.7585 C.2     1  ZINC000546142192   -0.0300
     21 C21        -1.2968   -0.0507   45.3490 C.2     1  ZINC000546142192   -0.0400
     22 N22        -1.4253    0.1369   46.6988 N.pl3   1  ZINC000546142192   -0.4500
     23 C23        -1.1329   -0.8464   47.7448 C.3     1  ZINC000546142192    0.1100
     24 C24         0.3778   -0.9091   47.9779 C.3     1  ZINC000546142192   -0.0900
     25 C25         0.8686    0.4333   48.4556 C.ar    1  ZINC000546142192   -0.0900
     26 C26         1.3440    1.3592   47.5459 C.ar    1  ZINC000546142192   -0.1100
     27 C27         1.7941    2.5906   47.9842 C.ar    1  ZINC000546142192   -0.1200
     28 C28         1.7684    2.8961   49.3321 C.ar    1  ZINC000546142192   -0.1200
     29 C29         1.2921    1.9706   50.2417 C.ar    1  ZINC000546142192   -0.1200
     30 C30         0.8380    0.7408   49.8030 C.ar    1  ZINC000546142192   -0.1100
     31 C31        -6.4999    0.7378   51.2208 C.ar    1  ZINC000546142192   -0.1500
     32 C32        -7.1400    0.5027   52.4218 C.ar    1  ZINC000546142192   -0.0900
     33 H33        -9.8458   -2.6966   55.1805 H       1  ZINC000546142192    0.0600
     34 H34       -10.1271   -2.4391   56.9191 H       1  ZINC000546142192    0.1000
     35 H35       -11.4529   -2.1937   55.7572 H       1  ZINC000546142192    0.0600
     36 H36       -10.1918    1.9989   56.2755 H       1  ZINC000546142192    0.0600
     37 H37       -10.0327    3.2674   55.0371 H       1  ZINC000546142192    0.0800
     38 H38       -11.4838    2.2373   55.0746 H       1  ZINC000546142192    0.0700
     39 H39        -7.9708    2.0983   55.2434 H       1  ZINC000546142192    0.0800
     40 H40        -7.8812    0.3461   54.9434 H       1  ZINC000546142192    0.0800
     41 H41        -7.5101    3.6859   53.4800 H       1  ZINC000546142192    0.1300
     42 H42        -6.3615    4.1156   51.3462 H       1  ZINC000546142192    0.1400
     43 H43        -6.0613    2.6140   48.8547 H       1  ZINC000546142192    0.4100
     44 H44        -4.1085    2.6148   47.5756 H       1  ZINC000546142192    0.4000
     45 H45        -1.6307    2.9789   48.2941 H       1  ZINC000546142192    0.0800
     46 H46        -1.8490    1.3682   49.0196 H       1  ZINC000546142192    0.1000
     47 H47        -1.6818    1.2942   43.6960 H       1  ZINC000546142192    0.1700
     48 H48        -0.9583   -0.9483   44.8531 H       1  ZINC000546142192    0.1800
     49 H49        -1.6313   -0.5529   48.6688 H       1  ZINC000546142192    0.1000
     50 H50        -1.4935   -1.8266   47.4331 H       1  ZINC000546142192    0.0900
     51 H51         0.5983   -1.6657   48.7310 H       1  ZINC000546142192    0.0800
     52 H52         0.8789   -1.1682   47.0451 H       1  ZINC000546142192    0.0800
     53 H53         1.3641    1.1205   46.4929 H       1  ZINC000546142192    0.1200
     54 H54         2.1662    3.3137   47.2735 H       1  ZINC000546142192    0.1200
     55 H55         2.1208    3.8579   49.6745 H       1  ZINC000546142192    0.1200
     56 H56         1.2723    2.2092   51.2948 H       1  ZINC000546142192    0.1200
     57 H57         0.4659    0.0177   50.5136 H       1  ZINC000546142192    0.1200
     58 H58        -6.2170   -0.0903   50.5878 H       1  ZINC000546142192    0.1300
     59 H59        -7.3610   -0.5098   52.7262 H       1  ZINC000546142192    0.1300
@<TRIPOS>BOND
     1     1     2    1
     2     1    33    1
     3     1    34    1
     4     1    35    1
     5     2     3    1
     6     3     4    2
     7     3     5    1
     8     5     6    1
     9     5     7    1
    10     5     8    1
    11     7    36    1
    12     7    37    1
    13     7    38    1
    14     8     9    1
    15     8    39    1
    16     8    40    1
    17     9    32   ar
    18     9    10   ar
    19    10    11   ar
    20    10    41    1
    21    11    12   ar
    22    11    42    1
    23    12    13    1
    24    12    31   ar
    25    13    14   am
    26    13    43    1
    27    14    15    2
    28    14    16   am
    29    16    17    1
    30    16    44    1
    31    17    18    1
    32    17    45    1
    33    17    46    1
    34    18    22    1
    35    18    19    2
    36    19    20    1
    37    20    21    2
    38    20    47    1
    39    21    22    1
    40    21    48    1
    41    22    23    1
    42    23    24    1
    43    23    49    1
    44    23    50    1
    45    24    25    1
    46    24    51    1
    47    24    52    1
    48    25    30   ar
    49    25    26   ar
    50    26    27   ar
    51    26    53    1
    52    27    28   ar
    53    27    54    1
    54    28    29   ar
    55    28    55    1
    56    29    30   ar
    57    29    56    1
    58    30    57    1
    59    31    32   ar
    60    31    58    1
    61    32    59    1
@<TRIPOS>SUBSTRUCTURE
     1 ZINC000546142192        1 TEMP              0 ****  ****    0 ROOT


##########                                Name:    ZINC000744839011
##########                DOCK_Rotatable_Bonds:                  10
##########                         Heavy_Atoms:                  24
##########                    Molecular_Weight:              378.83
##########                DOCK_Rotatable_Bonds:                  10
##########                       Formal_Charge:           0.0300002
##########                     HBond_Acceptors:                   9
##########                        HBond_Donors:                   0
##########                         Heavy_Atoms:                  24
##########                          Grid_Score:          -39.446331
##########                     Grid_vdw_energy:          -38.092834
##########                      Grid_es_energy:           -1.353497
##########           Internal_energy_repulsive:           12.310908

@<TRIPOS>MOLECULE
ZINC000744839011
 43 43 1 0 0
SMALL
USER_CHARGES


@<TRIPOS>ATOM
      1 C1         -0.7218   -0.6416   41.8623 C.3     1  ZINC000744839011    0.0400
      2 O2         -0.4067    0.0308   43.1101 O.3     1  ZINC000744839011   -0.3600
      3 C3         -1.4076    0.1652   44.0022 C.2     1  ZINC000744839011    0.5100
      4 O4         -2.5456   -0.1201   43.6861 O.2     1  ZINC000744839011   -0.5000
      5 C5         -1.1218    0.6588   45.3621 C.ar    1  ZINC000744839011   -0.1600
      6 C6         -1.0489    2.0327   45.6079 C.ar    1  ZINC000744839011   -0.0100
      7 C7         -0.7822    2.4900   46.8793 C.ar    1  ZINC000744839011   -0.2100
      8 C8         -0.5857    1.5879   47.9177 C.ar    1  ZINC000744839011    0.1800
      9 O9         -0.3231    2.0430   49.1691 O.3     1  ZINC000744839011   -0.2900
     10 C10        -1.4208    2.0995   50.0824 C.3     1  ZINC000744839011    0.0500
     11 C11        -2.4056    3.1795   49.6298 C.3     1  ZINC000744839011    0.0600
     12 O12        -3.4648    3.3119   50.6140 O.3     1  ZINC000744839011   -0.3400
     13 C13        -4.3257    2.2880   50.7244 C.2     1  ZINC000744839011    0.5000
     14 O14        -4.3926    1.4580   49.8489 O.2     1  ZINC000744839011   -0.4900
     15 C15        -5.2088    2.1738   51.9401 C.3     1  ZINC000744839011   -0.6400
     16 S16        -6.7832    1.4030   51.4736 S.o2    1  ZINC000744839011    2.4400
     17 O17        -7.5329    2.3339   50.7049 O.2     1  ZINC000744839011   -0.9100
     18 O18        -6.5151    0.1155   50.9354 O.2     1  ZINC000744839011   -0.9100
     19 C19        -7.5925    1.1990   53.0842 C.3     1  ZINC000744839011   -0.5700
     20 C20        -7.7370    2.5647   53.7589 C.3     1  ZINC000744839011   -0.1500
     21 C21        -8.9772    0.5797   52.8844 C.3     1  ZINC000744839011   -0.1500
     22 C22        -0.6579    0.2193   47.6781 C.ar    1  ZINC000744839011   -0.0800
     23 Cl23       -0.4120   -0.9030   48.9797 Cl      1  ZINC000744839011   -0.0400
     24 C24        -0.9289   -0.2462   46.4102 C.ar    1  ZINC000744839011   -0.0100
     25 H25        -1.0652   -1.6546   42.0721 H       1  ZINC000744839011    0.0700
     26 H26        -1.5064   -0.0925   41.3417 H       1  ZINC000744839011    0.0700
     27 H27         0.1697   -0.6824   41.2364 H       1  ZINC000744839011    0.1100
     28 H28        -1.2009    2.7350   44.8016 H       1  ZINC000744839011    0.1500
     29 H29        -0.7254    3.5517   47.0696 H       1  ZINC000744839011    0.1500
     30 H30        -1.9255    1.1336   50.1040 H       1  ZINC000744839011    0.0900
     31 H31        -1.0519    2.3391   51.0796 H       1  ZINC000744839011    0.1000
     32 H32        -1.8816    4.1300   49.5297 H       1  ZINC000744839011    0.1100
     33 H33        -2.8359    2.8989   48.6684 H       1  ZINC000744839011    0.0900
     34 H34        -4.7132    1.5608   52.6929 H       1  ZINC000744839011    0.1700
     35 H35        -5.3971    3.1673   52.3471 H       1  ZINC000744839011    0.1700
     36 H36        -6.9892    0.5448   53.7137 H       1  ZINC000744839011    0.1400
     37 H37        -8.2232    2.4421   54.7267 H       1  ZINC000744839011    0.0900
     38 H38        -6.7505    3.0059   53.9012 H       1  ZINC000744839011    0.0700
     39 H39        -8.3403    3.2189   53.1294 H       1  ZINC000744839011    0.0800
     40 H40        -8.8742   -0.3931   52.4038 H       1  ZINC000744839011    0.0800
     41 H41        -9.4635    0.4573   53.8522 H       1  ZINC000744839011    0.0900
     42 H42        -9.5804    1.2339   52.2550 H       1  ZINC000744839011    0.0800
     43 H43        -0.9848   -1.3087   46.2246 H       1  ZINC000744839011    0.1600
@<TRIPOS>BOND
     1     1     2    1
     2     1    25    1
     3     1    26    1
     4     1    27    1
     5     2     3    1
     6     3     4    2
     7     3     5    1
     8     5    24   ar
     9     5     6   ar
    10     6     7   ar
    11     6    28    1
    12     7     8   ar
    13     7    29    1
    14     8     9    1
    15     8    22   ar
    16     9    10    1
    17    10    11    1
    18    10    30    1
    19    10    31    1
    20    11    12    1
    21    11    32    1
    22    11    33    1
    23    12    13    1
    24    13    14    2
    25    13    15    1
    26    15    16    1
    27    15    34    1
    28    15    35    1
    29    16    17    2
    30    16    18    2
    31    16    19    1
    32    19    20    1
    33    19    21    1
    34    19    36    1
    35    20    37    1
    36    20    38    1
    37    20    39    1
    38    21    40    1
    39    21    41    1
    40    21    42    1
    41    22    23    1
    42    22    24   ar
    43    24    43    1
@<TRIPOS>SUBSTRUCTURE
     1 ZINC000744839011        1 TEMP              0 ****  ****    0 ROOT


##########                                Name:    ZINC000532153088
##########                DOCK_Rotatable_Bonds:                  11
##########                         Heavy_Atoms:                  29
##########                    Molecular_Weight:             402.484
##########                DOCK_Rotatable_Bonds:                  11
##########                       Formal_Charge:          -0.0200009
##########                     HBond_Acceptors:                   6
##########                        HBond_Donors:                   1
##########                         Heavy_Atoms:                  29
##########                          Grid_Score:          -39.337555
##########                     Grid_vdw_energy:          -38.842468
##########                      Grid_es_energy:           -0.495087
##########           Internal_energy_repulsive:           20.576294

@<TRIPOS>MOLECULE
ZINC000532153088
 57 59 1 0 0
SMALL
USER_CHARGES


@<TRIPOS>ATOM
      1 C1         -3.2639    5.2515   54.9924 C.3     1  ZINC000532153088   -0.1800
      2 C2         -2.8956    5.1104   53.5141 C.3     1  ZINC000532153088    0.0800
      3 C3         -1.3769    4.9867   53.3763 C.3     1  ZINC000532153088   -0.1500
      4 O4         -3.5194    3.9421   52.9772 O.3     1  ZINC000532153088   -0.3800
      5 C5         -4.9461    3.9564   53.0568 C.3     1  ZINC000532153088    0.1000
      6 C6         -5.4967    2.7021   52.4285 C.ar    1  ZINC000532153088   -0.0700
      7 C7         -6.1404    1.7623   53.2113 C.ar    1  ZINC000532153088   -0.1000
      8 C8         -6.6455    0.6115   52.6348 C.ar    1  ZINC000532153088   -0.1100
      9 C9         -6.5072    0.4013   51.2758 C.ar    1  ZINC000532153088   -0.1200
     10 C10        -5.8642    1.3419   50.4926 C.ar    1  ZINC000532153088   -0.1000
     11 C11        -5.3630    2.4942   51.0682 C.ar    1  ZINC000532153088   -0.1100
     12 C12        -4.6621    3.5195   50.2146 C.3     1  ZINC000532153088    0.1600
     13 N13        -3.2225    3.2478   50.2082 N.am    1  ZINC000532153088   -0.7300
     14 C14        -2.7008    2.3993   49.3002 C.2     1  ZINC000532153088    0.5100
     15 O15        -3.4234    1.8596   48.4895 O.2     1  ZINC000532153088   -0.5000
     16 C16        -1.2197    2.1213   49.2925 C.3     1  ZINC000532153088    0.0300
     17 N17        -0.8669    1.3805   48.0740 N.3     1  ZINC000532153088   -0.4800
     18 C18        -0.2857    2.2747   47.0639 C.3     1  ZINC000532153088    0.1000
     19 C19        -0.3350    1.6070   45.7139 C.ar    1  ZINC000532153088   -0.1300
     20 C20         0.8387    1.2775   45.0631 C.ar    1  ZINC000532153088   -0.0600
     21 C21         0.7952    0.6645   43.8250 C.ar    1  ZINC000532153088   -0.1700
     22 C22        -0.4248    0.3799   43.2354 C.ar    1  ZINC000532153088    0.1300
     23 F23        -0.4671   -0.2197   42.0254 F       1  ZINC000532153088   -0.1300
     24 C24        -1.6012    0.7095   43.8864 C.ar    1  ZINC000532153088   -0.2000
     25 C25        -1.5564    1.3184   45.1284 C.ar    1  ZINC000532153088    0.1600
     26 F26        -2.7037    1.6406   45.7649 F       1  ZINC000532153088   -0.1100
     27 C27         0.0434    0.2685   48.3790 C.3     1  ZINC000532153088    0.0200
     28 C28        -0.5618   -0.9872   49.0096 C.3     1  ZINC000532153088   -0.2200
     29 C29        -0.1009   -1.0100   47.5510 C.3     1  ZINC000532153088   -0.1700
     30 H30        -2.7882    6.1425   55.4019 H       1  ZINC000532153088    0.0700
     31 H31        -4.3459    5.3395   55.0904 H       1  ZINC000532153088    0.0600
     32 H32        -2.9200    4.3726   55.5379 H       1  ZINC000532153088    0.0700
     33 H33        -3.2396    5.9892   52.9685 H       1  ZINC000532153088    0.0600
     34 H34        -1.0330    4.1079   53.9218 H       1  ZINC000532153088    0.0600
     35 H35        -1.1146    4.8862   52.3231 H       1  ZINC000532153088    0.0600
     36 H36        -0.9012    5.8777   53.7859 H       1  ZINC000532153088    0.0700
     37 H37        -5.2513    4.0034   54.1021 H       1  ZINC000532153088    0.0600
     38 H38        -5.3309    4.8275   52.5264 H       1  ZINC000532153088    0.0600
     39 H39        -6.2484    1.9266   54.2732 H       1  ZINC000532153088    0.1300
     40 H40        -7.1479   -0.1232   53.2466 H       1  ZINC000532153088    0.1200
     41 H41        -6.9012   -0.4979   50.8256 H       1  ZINC000532153088    0.1300
     42 H42        -5.7559    1.1775   49.4308 H       1  ZINC000532153088    0.1300
     43 H43        -5.0461    3.4678   49.1958 H       1  ZINC000532153088    0.0800
     44 H44        -4.8421    4.5148   50.6207 H       1  ZINC000532153088    0.0800
     45 H45        -2.6447    3.6786   50.8575 H       1  ZINC000532153088    0.4000
     46 H46        -0.6729    3.0640   49.3157 H       1  ZINC000532153088    0.0700
     47 H47        -0.9570    1.5273   50.1678 H       1  ZINC000532153088    0.1100
     48 H48        -0.8548    3.2038   47.0306 H       1  ZINC000532153088    0.0900
     49 H49         0.7502    2.4923   47.3241 H       1  ZINC000532153088    0.0500
     50 H50         1.7909    1.4995   45.5221 H       1  ZINC000532153088    0.1400
     51 H51         1.7131    0.4078   43.3170 H       1  ZINC000532153088    0.1400
     52 H52        -2.5534    0.4878   43.4273 H       1  ZINC000532153088    0.1500
     53 H53         1.0475    0.5552   48.6914 H       1  ZINC000532153088    0.1200
     54 H54         0.0442   -1.5269   49.7374 H       1  ZINC000532153088    0.1000
     55 H55        -1.6354   -0.9883   49.1984 H       1  ZINC000532153088    0.1000
     56 H56        -0.8713   -1.0260   46.7799 H       1  ZINC000532153088    0.1000
     57 H57         0.8083   -1.5647   47.3190 H       1  ZINC000532153088    0.1000
@<TRIPOS>BOND
     1     1     2    1
     2     1    30    1
     3     1    31    1
     4     1    32    1
     5     2     3    1
     6     2     4    1
     7     2    33    1
     8     3    34    1
     9     3    35    1
    10     3    36    1
    11     4     5    1
    12     5     6    1
    13     5    37    1
    14     5    38    1
    15     6    11   ar
    16     6     7   ar
    17     7     8   ar
    18     7    39    1
    19     8     9   ar
    20     8    40    1
    21     9    10   ar
    22     9    41    1
    23    10    11   ar
    24    10    42    1
    25    11    12    1
    26    12    13    1
    27    12    43    1
    28    12    44    1
    29    13    14   am
    30    13    45    1
    31    14    15    2
    32    14    16    1
    33    16    17    1
    34    16    46    1
    35    16    47    1
    36    17    18    1
    37    17    27    1
    38    18    19    1
    39    18    48    1
    40    18    49    1
    41    19    25   ar
    42    19    20   ar
    43    20    21   ar
    44    20    50    1
    45    21    22   ar
    46    21    51    1
    47    22    23    1
    48    22    24   ar
    49    24    25   ar
    50    24    52    1
    51    25    26    1
    52    27    29    1
    53    27    28    1
    54    27    53    1
    55    28    29    1
    56    28    54    1
    57    28    55    1
    58    29    56    1
    59    29    57    1
@<TRIPOS>SUBSTRUCTURE
     1 ZINC000532153088        1 TEMP              0 ****  ****    0 ROOT


##########                                Name:    ZINC000623695407
##########                DOCK_Rotatable_Bonds:                  10
##########                         Heavy_Atoms:                  27
##########                    Molecular_Weight:             368.479
##########                DOCK_Rotatable_Bonds:                  10
##########                       Formal_Charge:           0.0299989
##########                     HBond_Acceptors:                   6
##########                        HBond_Donors:                   2
##########                         Heavy_Atoms:                  27
##########                          Grid_Score:          -39.264324
##########                     Grid_vdw_energy:          -38.223053
##########                      Grid_es_energy:           -1.041272
##########           Internal_energy_repulsive:           10.610609

@<TRIPOS>MOLECULE
ZINC000623695407
 55 57 1 0 0
SMALL
USER_CHARGES


@<TRIPOS>ATOM
      1 C1        -12.5326   -0.0811   54.4607 C.3     1  ZINC000623695407    0.0300
      2 O2        -11.3623   -0.8950   54.5619 O.3     1  ZINC000623695407   -0.3200
      3 C3        -10.1918   -0.3478   54.1406 C.ar    1  ZINC000623695407    0.1300
      4 C4         -9.6440    0.7299   54.8210 C.ar    1  ZINC000623695407   -0.2100
      5 C5         -8.4539    1.2840   54.3910 C.ar    1  ZINC000623695407   -0.0600
      6 C6         -7.8090    0.7656   53.2832 C.ar    1  ZINC000623695407   -0.1100
      7 C7         -6.5111    1.3724   52.8160 C.3     1  ZINC000623695407    0.0600
      8 N8         -6.7817    2.3457   51.7494 N.3     1  ZINC000623695407   -0.4600
      9 C9         -7.2353    3.6320   52.3105 C.3     1  ZINC000623695407    0.0000
     10 C10        -6.3494    4.3340   51.2716 C.3     1  ZINC000623695407   -0.1300
     11 C11        -5.5434    3.0289   51.3308 C.3     1  ZINC000623695407    0.0100
     12 H12        -4.7685    3.0315   52.0974 H       1  ZINC000623695407    0.0900
     13 C13        -5.0243    2.5706   49.9665 C.3     1  ZINC000623695407    0.1600
     14 N14        -3.8824    1.6725   50.1549 N.am    1  ZINC000623695407   -0.7400
     15 C15        -2.8836    1.6534   49.2502 C.2     1  ZINC000623695407    0.7100
     16 O16        -2.9310    2.3805   48.2768 O.2     1  ZINC000623695407   -0.5900
     17 N17        -1.8323    0.8283   49.4244 N.am    1  ZINC000623695407   -0.7400
     18 C18        -0.7475    0.8063   48.4400 C.3     1  ZINC000623695407    0.1700
     19 H19        -0.8525    1.6552   47.7645 H       1  ZINC000623695407    0.0900
     20 C20         0.5986    0.8927   49.1623 C.3     1  ZINC000623695407   -0.1600
     21 C21        -0.8133   -0.4949   47.6378 C.3     1  ZINC000623695407   -0.0900
     22 C22        -0.7503   -0.1809   46.1652 C.ar    1  ZINC000623695407   -0.0300
     23 C23        -1.5899   -0.8209   45.2665 C.ar    1  ZINC000623695407   -0.1700
     24 C24        -1.5035   -0.5070   43.9233 C.ar    1  ZINC000623695407    0.1000
     25 N25        -0.6355    0.3882   43.4943 N.ar    1  ZINC000623695407   -0.4900
     26 C26         0.1784    1.0163   44.3201 C.ar    1  ZINC000623695407    0.1000
     27 C27         0.1450    0.7589   45.6776 C.ar    1  ZINC000623695407   -0.1700
     28 C28        -8.3528   -0.3087   52.6037 C.ar    1  ZINC000623695407   -0.0700
     29 C29        -9.5400   -0.8697   53.0327 C.ar    1  ZINC000623695407   -0.1500
     30 H30       -13.3947   -0.6368   54.8297 H       1  ZINC000623695407    0.1000
     31 H31       -12.3999    0.8217   55.0569 H       1  ZINC000623695407    0.0600
     32 H32       -12.6957    0.1926   53.4183 H       1  ZINC000623695407    0.0600
     33 H33       -10.1477    1.1356   55.6859 H       1  ZINC000623695407    0.1300
     34 H34        -8.0270    2.1231   54.9204 H       1  ZINC000623695407    0.1200
     35 H35        -6.0234    1.8749   53.6512 H       1  ZINC000623695407    0.0600
     36 H36        -5.8594    0.5867   52.4339 H       1  ZINC000623695407    0.0700
     37 H37        -8.3002    3.8162   52.1685 H       1  ZINC000623695407    0.0900
     38 H38        -6.9119    3.7955   53.3385 H       1  ZINC000623695407    0.0700
     39 H39        -6.8399    4.5128   50.3147 H       1  ZINC000623695407    0.1000
     40 H40        -5.8175    5.2050   51.6544 H       1  ZINC000623695407    0.0800
     41 H41        -5.8168    2.0442   49.4344 H       1  ZINC000623695407    0.0700
     42 H42        -4.7119    3.4390   49.3863 H       1  ZINC000623695407    0.0700
     43 H43        -3.8451    1.0916   50.9308 H       1  ZINC000623695407    0.3900
     44 H44        -1.7939    0.2491   50.2016 H       1  ZINC000623695407    0.3900
     45 H45         1.4056    0.8762   48.4297 H       1  ZINC000623695407    0.0700
     46 H46         0.6453    1.8196   49.7337 H       1  ZINC000623695407    0.0700
     47 H47         0.7035    0.0437   49.8378 H       1  ZINC000623695407    0.0600
     48 H48         0.0281   -1.1323   47.9097 H       1  ZINC000623695407    0.1000
     49 H49        -1.7471   -1.0116   47.8595 H       1  ZINC000623695407    0.0800
     50 H50        -2.3023   -1.5556   45.6116 H       1  ZINC000623695407    0.1300
     51 H51        -2.1540   -1.0011   43.2168 H       1  ZINC000623695407    0.1500
     52 H52         0.8763    1.7432   43.9317 H       1  ZINC000623695407    0.1600
     53 H53         0.8138    1.2768   46.3491 H       1  ZINC000623695407    0.1400
     54 H54        -7.8469   -0.7120   51.7388 H       1  ZINC000623695407    0.1200
     55 H55        -9.9643   -1.7089   52.5017 H       1  ZINC000623695407    0.1300
@<TRIPOS>BOND
     1     1     2    1
     2     1    30    1
     3     1    31    1
     4     1    32    1
     5     2     3    1
     6     3    29   ar
     7     3     4   ar
     8     4     5   ar
     9     4    33    1
    10     5     6   ar
    11     5    34    1
    12     6     7    1
    13     6    28   ar
    14     7     8    1
    15     7    35    1
    16     7    36    1
    17     8    11    1
    18     8     9    1
    19     9    10    1
    20     9    37    1
    21     9    38    1
    22    10    11    1
    23    10    39    1
    24    10    40    1
    25    11    12    1
    26    11    13    1
    27    13    14    1
    28    13    41    1
    29    13    42    1
    30    14    15   am
    31    14    43    1
    32    15    16    2
    33    15    17   am
    34    17    18    1
    35    17    44    1
    36    18    19    1
    37    18    20    1
    38    18    21    1
    39    20    45    1
    40    20    46    1
    41    20    47    1
    42    21    22    1
    43    21    48    1
    44    21    49    1
    45    22    27   ar
    46    22    23   ar
    47    23    24   ar
    48    23    50    1
    49    24    25   ar
    50    24    51    1
    51    25    26   ar
    52    26    27   ar
    53    26    52    1
    54    27    53    1
    55    28    29   ar
    56    28    54    1
    57    29    55    1
@<TRIPOS>SUBSTRUCTURE
     1 ZINC000623695407        1 TEMP              0 ****  ****    0 ROOT


##########                                Name:    ZINC000058043838
##########                DOCK_Rotatable_Bonds:                   8
##########                         Heavy_Atoms:                  29
##########                    Molecular_Weight:             412.469
##########                DOCK_Rotatable_Bonds:                   8
##########                       Formal_Charge:           0.0200001
##########                     HBond_Acceptors:                   9
##########                        HBond_Donors:                   0
##########                         Heavy_Atoms:                  29
##########                          Grid_Score:          -39.240757
##########                     Grid_vdw_energy:          -38.012405
##########                      Grid_es_energy:           -1.228351
##########           Internal_energy_repulsive:            9.920831

@<TRIPOS>MOLECULE
ZINC000058043838
 49 51 1 0 0
SMALL
USER_CHARGES


@<TRIPOS>ATOM
      1 C1         -0.7012    4.8866   54.5053 C.3     1  ZINC000058043838    0.0300
      2 O2         -0.7153    4.8453   53.0769 O.3     1  ZINC000058043838   -0.3800
      3 C3         -1.8237    4.1303   52.5271 C.3     1  ZINC000058043838    0.0300
      4 C4         -1.5809    3.8803   51.0373 C.3     1  ZINC000058043838    0.1000
      5 N5         -2.7264    3.1654   50.4691 N.am    1  ZINC000058043838   -0.5200
      6 C6         -2.5494    2.3296   49.4267 C.2     1  ZINC000058043838    0.5100
      7 O7         -3.4975    1.7365   48.9572 O.2     1  ZINC000058043838   -0.4500
      8 C8         -1.1735    2.1319   48.8445 C.3     1  ZINC000058043838   -0.0900
      9 C9         -1.2925    1.5378   47.4647 C.ar    1  ZINC000058043838   -0.1400
     10 C10        -1.3682    0.1639   47.2962 C.ar    1  ZINC000058043838   -0.0500
     11 C11        -1.4772   -0.3381   46.0081 C.ar    1  ZINC000058043838   -0.1700
     12 C12        -1.5066    0.5416   44.9429 C.ar    1  ZINC000058043838    0.1300
     13 C13        -1.6253    0.0073   43.5388 C.3     1  ZINC000058043838   -0.1100
     14 N14        -1.4323    1.8434   45.1407 N.ar    1  ZINC000058043838   -0.4800
     15 C15        -1.3332    2.3561   46.3515 C.ar    1  ZINC000058043838    0.1200
     16 C16        -3.9953    3.3489   51.0048 C.2     1  ZINC000058043838    0.3100
     17 N17        -4.6907    2.4391   51.6128 N.2     1  ZINC000058043838   -0.4700
     18 C18        -5.8863    2.7950   52.0615 C.2     1  ZINC000058043838    0.1100
     19 C19        -6.7796    1.8491   52.7737 C.ar    1  ZINC000058043838    0.0400
     20 C20        -7.0788    2.0489   54.1204 C.ar    1  ZINC000058043838   -0.0800
     21 C21        -7.9109    1.1658   54.7779 C.ar    1  ZINC000058043838   -0.0500
     22 C22        -8.4477    0.0841   54.1030 C.ar    1  ZINC000058043838   -0.0400
     23 N23        -9.3397   -0.8596   54.8138 N.pl3   1  ZINC000058043838    0.0300
     24 O24        -9.5997   -0.6830   55.9905 O.2     1  ZINC000058043838   -0.1600
     25 O25        -9.8136   -1.8128   54.2218 O.2     1  ZINC000058043838   -0.1600
     26 C26        -8.1546   -0.1188   52.7664 C.ar    1  ZINC000058043838   -0.0500
     27 C27        -7.3275    0.7605   52.0975 C.ar    1  ZINC000058043838   -0.1100
     28 C28        -6.2333    4.0731   51.8264 C.2     1  ZINC000058043838   -0.2600
     29 S29        -4.9065    4.8555   50.9704 S.3     1  ZINC000058043838    0.1500
     30 H30        -1.6080    5.3739   54.8637 H       1  ZINC000058043838    0.0500
     31 H31        -0.6553    3.8707   54.8978 H       1  ZINC000058043838    0.0400
     32 H32         0.1704    5.4467   54.8440 H       1  ZINC000058043838    0.0900
     33 H33        -1.9324    3.1761   53.0426 H       1  ZINC000058043838    0.0600
     34 H34        -2.7334    4.7173   52.6535 H       1  ZINC000058043838    0.0800
     35 H35        -1.4570    4.8340   50.5243 H       1  ZINC000058043838    0.1200
     36 H36        -0.6795    3.2803   50.9118 H       1  ZINC000058043838    0.1000
     37 H37        -0.6633    3.0931   48.7834 H       1  ZINC000058043838    0.1100
     38 H38        -0.6026    1.4574   49.4826 H       1  ZINC000058043838    0.1100
     39 H39        -1.3426   -0.4997   48.1478 H       1  ZINC000058043838    0.1300
     40 H40        -1.5381   -1.4032   45.8396 H       1  ZINC000058043838    0.1400
     41 H41        -2.6783   -0.0731   43.2685 H       1  ZINC000058043838    0.0800
     42 H42        -1.1238    0.6853   42.8484 H       1  ZINC000058043838    0.0800
     43 H43        -1.1600   -0.9769   43.4840 H       1  ZINC000058043838    0.0800
     44 H44        -1.2745    3.4276   46.4742 H       1  ZINC000058043838    0.1500
     45 H45        -6.6600    2.8928   54.6483 H       1  ZINC000058043838    0.1600
     46 H46        -8.1432    1.3194   55.8213 H       1  ZINC000058043838    0.1600
     47 H47        -8.5764   -0.9650   52.2445 H       1  ZINC000058043838    0.1600
     48 H48        -7.0996    0.6013   51.0539 H       1  ZINC000058043838    0.1500
     49 H49        -7.1630    4.5403   52.1158 H       1  ZINC000058043838    0.1800
@<TRIPOS>BOND
     1     1     2    1
     2     1    30    1
     3     1    31    1
     4     1    32    1
     5     2     3    1
     6     3     4    1
     7     3    33    1
     8     3    34    1
     9     4     5    1
    10     4    35    1
    11     4    36    1
    12     5     6   am
    13     5    16    1
    14     6     7    2
    15     6     8    1
    16     8     9    1
    17     8    37    1
    18     8    38    1
    19     9    15   ar
    20     9    10   ar
    21    10    11   ar
    22    10    39    1
    23    11    12   ar
    24    11    40    1
    25    12    13    1
    26    12    14   ar
    27    13    41    1
    28    13    42    1
    29    13    43    1
    30    14    15   ar
    31    15    44    1
    32    16    29    1
    33    16    17    2
    34    17    18    1
    35    18    19    1
    36    18    28    2
    37    19    27   ar
    38    19    20   ar
    39    20    21   ar
    40    20    45    1
    41    21    22   ar
    42    21    46    1
    43    22    23    1
    44    22    26   ar
    45    23    24    2
    46    23    25    2
    47    26    27   ar
    48    26    47    1
    49    27    48    1
    50    28    29    1
    51    28    49    1
@<TRIPOS>SUBSTRUCTURE
     1 ZINC000058043838        1 TEMP              0 ****  ****    0 ROOT


##########                                Name:    ZINC000599797189
##########                DOCK_Rotatable_Bonds:                  13
##########                         Heavy_Atoms:                  23
##########                    Molecular_Weight:             329.313
##########                DOCK_Rotatable_Bonds:                  13
##########                       Formal_Charge:          0.00999949
##########                     HBond_Acceptors:                  11
##########                        HBond_Donors:                   3
##########                         Heavy_Atoms:                  23
##########                          Grid_Score:          -39.033184
##########                     Grid_vdw_energy:          -35.679695
##########                      Grid_es_energy:           -3.353487
##########           Internal_energy_repulsive:           10.879457

@<TRIPOS>MOLECULE
ZINC000599797189
 42 42 1 0 0
SMALL
USER_CHARGES


@<TRIPOS>ATOM
      1 C1         -1.1625   -0.5743   42.4674 C.3     1  ZINC000599797189   -0.1500
      2 C2         -1.4317    0.3219   43.6779 C.3     1  ZINC000599797189    0.0600
      3 O3         -1.1062   -0.3989   44.8956 O.3     1  ZINC000599797189   -0.3600
      4 C4         -0.6842    0.3298   45.9408 C.2     1  ZINC000599797189    0.4500
      5 O5         -0.3439    1.4778   45.7789 O.2     1  ZINC000599797189   -0.4800
      6 C6         -0.6348   -0.2839   47.3164 C.3     1  ZINC000599797189    0.1500
      7 N7         -1.2079    0.6502   48.2887 N.pl3   1  ZINC000599797189   -0.3800
      8 C8         -0.6523    1.0481   49.4457 C.2     1  ZINC000599797189    0.2800
      9 N9         -1.4741    1.8841   50.0274 N.2     1  ZINC000599797189   -0.5100
     10 C10        -2.5649    2.0451   49.2725 C.2     1  ZINC000599797189    0.4700
     11 N11        -3.6547    2.8660   49.5808 N.am    1  ZINC000599797189   -0.6400
     12 C12        -4.8162    2.3185   49.9905 C.2     1  ZINC000599797189    0.7100
     13 O13        -4.9172    1.1110   50.0906 O.2     1  ZINC000599797189   -0.5300
     14 N14        -5.8657    3.1096   50.2892 N.am    1  ZINC000599797189   -0.7300
     15 C15        -7.1276    2.5146   50.7362 C.3     1  ZINC000599797189    0.1100
     16 C16        -7.3095    2.7696   52.2337 C.3     1  ZINC000599797189    0.1100
     17 H17        -6.6952    3.6180   52.5351 H       1  ZINC000599797189    0.1200
     18 O18        -8.6831    3.0561   52.5046 O.3     1  ZINC000599797189   -0.5400
     19 C19        -6.8834    1.5271   53.0182 C.3     1  ZINC000599797189   -0.1500
     20 C20        -7.9948    0.5098   52.9905 C.2     1  ZINC000599797189    0.4600
     21 O21        -8.0226   -0.3312   52.1234 O.2     1  ZINC000599797189   -0.4900
     22 O22        -8.9539    0.5380   53.9291 O.3     1  ZINC000599797189   -0.3600
     23 C23        -9.9254   -0.5411   53.9115 C.3     1  ZINC000599797189    0.0400
     24 N24        -2.4434    1.3109   48.1924 N.2     1  ZINC000599797189   -0.3200
     25 H25        -1.4069   -0.0332   41.5533 H       1  ZINC000599797189    0.0800
     26 H26        -0.1100   -0.8573   42.4518 H       1  ZINC000599797189    0.0700
     27 H27        -1.7788   -1.4708   42.5347 H       1  ZINC000599797189    0.0700
     28 H28        -0.8153    1.2184   43.6106 H       1  ZINC000599797189    0.0700
     29 H29        -2.4842    0.6049   43.6935 H       1  ZINC000599797189    0.0700
     30 H30        -1.2082   -1.2108   47.3214 H       1  ZINC000599797189    0.1500
     31 H31         0.4006   -0.4956   47.5828 H       1  ZINC000599797189    0.1300
     32 H32         0.3065    0.7323   49.8293 H       1  ZINC000599797189    0.2300
     33 H33        -3.5745    3.8293   49.5000 H       1  ZINC000599797189    0.4200
     34 H34        -5.7855    4.0729   50.2083 H       1  ZINC000599797189    0.4000
     35 H35        -7.9555    2.9640   50.1878 H       1  ZINC000599797189    0.0800
     36 H36        -7.1090    1.4408   50.5501 H       1  ZINC000599797189    0.0800
     37 H37        -8.8814    3.1800   53.4430 H       1  ZINC000599797189    0.3800
     38 H38        -5.9888    1.1002   52.5649 H       1  ZINC000599797189    0.1200
     39 H39        -6.6705    1.8046   54.0506 H       1  ZINC000599797189    0.1200
     40 H40       -10.4504   -0.5418   52.9563 H       1  ZINC000599797189    0.0600
     41 H41        -9.4128   -1.4938   54.0451 H       1  ZINC000599797189    0.0600
     42 H42       -10.6423   -0.3978   54.7200 H       1  ZINC000599797189    0.1000
@<TRIPOS>BOND
     1     1     2    1
     2     1    25    1
     3     1    26    1
     4     1    27    1
     5     2     3    1
     6     2    28    1
     7     2    29    1
     8     3     4    1
     9     4     5    2
    10     4     6    1
    11     6     7    1
    12     6    30    1
    13     6    31    1
    14     7    24    1
    15     7     8    1
    16     8     9    2
    17     8    32    1
    18     9    10    1
    19    10    11    1
    20    10    24    2
    21    11    12   am
    22    11    33    1
    23    12    13    2
    24    12    14   am
    25    14    15    1
    26    14    34    1
    27    15    16    1
    28    15    35    1
    29    15    36    1
    30    16    17    1
    31    16    18    1
    32    16    19    1
    33    18    37    1
    34    19    20    1
    35    19    38    1
    36    19    39    1
    37    20    21    2
    38    20    22    1
    39    22    23    1
    40    23    40    1
    41    23    41    1
    42    23    42    1
@<TRIPOS>SUBSTRUCTURE
     1 ZINC000599797189        1 TEMP              0 ****  ****    0 ROOT


##########                                Name:    ZINC001127302705
##########                DOCK_Rotatable_Bonds:                   9
##########                         Heavy_Atoms:                  28
##########                    Molecular_Weight:             398.892
##########                DOCK_Rotatable_Bonds:                   9
##########                       Formal_Charge:          -0.0200002
##########                     HBond_Acceptors:                   7
##########                        HBond_Donors:                   1
##########                         Heavy_Atoms:                  28
##########                          Grid_Score:          -38.984921
##########                     Grid_vdw_energy:          -38.557987
##########                      Grid_es_energy:           -0.426935
##########           Internal_energy_repulsive:           29.957350

@<TRIPOS>MOLECULE
ZINC001127302705
 51 53 1 0 0
SMALL
USER_CHARGES


@<TRIPOS>ATOM
      1 C1         -1.0967   -0.1964   48.8940 C.3     1  ZINC001127302705   -0.1500
      2 C2         -0.0607    0.8313   48.4341 C.3     1  ZINC001127302705   -0.1400
      3 C3         -0.7578    1.9384   47.6408 C.3     1  ZINC001127302705    0.1800
      4 C4          0.1711    3.1491   47.5306 C.3     1  ZINC001127302705   -0.1600
      5 C5         -1.0963    1.4260   46.2394 C.3     1  ZINC001127302705    0.0700
      6 O6          0.1100    1.2389   45.4965 O.3     1  ZINC001127302705   -0.2800
      7 C7          0.0005    0.6362   44.2856 C.ar    1  ZINC001127302705    0.3400
      8 N8         -1.0793   -0.0721   44.0019 N.ar    1  ZINC001127302705   -0.5300
      9 C9         -1.2264   -0.6741   42.8366 C.ar    1  ZINC001127302705    0.1400
     10 C10        -0.2497   -0.5850   41.8653 C.ar    1  ZINC001127302705   -0.2000
     11 C11         0.8999    0.1493   42.1232 C.ar    1  ZINC001127302705   -0.0300
     12 C12         1.0223    0.7740   43.3529 C.ar    1  ZINC001127302705   -0.1100
     13 Cl13        2.4381    1.7052   43.7298 Cl      1  ZINC001127302705   -0.0400
     14 N14        -1.9907    2.3298   48.3285 N.am    1  ZINC001127302705   -0.7100
     15 C15        -1.9416    2.7694   49.6017 C.2     1  ZINC001127302705    0.6200
     16 O16        -0.8741    2.8424   50.1789 O.2     1  ZINC001127302705   -0.5200
     17 C17        -3.1848    3.1623   50.2958 C.2     1  ZINC001127302705   -0.0200
     18 N18        -4.4168    2.9604   49.8726 N.2     1  ZINC001127302705   -0.2500
     19 N19        -5.2576    3.4292   50.7234 N.pl3   1  ZINC001127302705   -0.2800
     20 C20        -6.7143    3.3787   50.5767 C.3     1  ZINC001127302705    0.1600
     21 C21        -7.2535    2.1874   51.3257 C.ar    1  ZINC001127302705   -0.1200
     22 C22        -8.4794    2.2662   51.9594 C.ar    1  ZINC001127302705   -0.1000
     23 C23        -8.9739    1.1734   52.6464 C.ar    1  ZINC001127302705   -0.1200
     24 C24        -8.2427    0.0015   52.6994 C.ar    1  ZINC001127302705   -0.1100
     25 C25        -7.0170   -0.0777   52.0650 C.ar    1  ZINC001127302705   -0.1200
     26 C26        -6.5245    1.0138   51.3743 C.ar    1  ZINC001127302705   -0.0800
     27 C27        -4.6054    3.9751   51.7723 C.2     1  ZINC001127302705   -0.0200
     28 C28        -3.2799    3.8215   51.5443 C.2     1  ZINC001127302705   -0.1800
     29 H29        -1.5907   -0.6288   48.0238 H       1  ZINC001127302705    0.0500
     30 H30        -0.6001   -0.9850   49.4591 H       1  ZINC001127302705    0.0600
     31 H31        -1.8375    0.2926   49.5266 H       1  ZINC001127302705    0.0500
     32 H32         0.4332    1.2638   49.3042 H       1  ZINC001127302705    0.0900
     33 H33         0.6801    0.3423   47.8014 H       1  ZINC001127302705    0.0800
     34 H34         1.0885    2.8579   47.0188 H       1  ZINC001127302705    0.0700
     35 H35        -0.3255    3.9378   46.9654 H       1  ZINC001127302705    0.0500
     36 H36         0.4122    3.5142   48.5289 H       1  ZINC001127302705    0.0800
     37 H37        -1.6257    0.4764   46.3178 H       1  ZINC001127302705    0.0800
     38 H38        -1.7280    2.1532   45.7295 H       1  ZINC001127302705    0.0700
     39 H39        -2.1226   -1.2442   42.6407 H       1  ZINC001127302705    0.1700
     40 H40        -0.3784   -1.0815   40.9148 H       1  ZINC001127302705    0.1500
     41 H41         1.6791    0.2348   41.3803 H       1  ZINC001127302705    0.1500
     42 H42        -2.8422    2.2726   47.8678 H       1  ZINC001127302705    0.4100
     43 H43        -7.1522    4.2910   50.9815 H       1  ZINC001127302705    0.1000
     44 H44        -6.9703    3.2902   49.5208 H       1  ZINC001127302705    0.1100
     45 H45        -9.0508    3.1817   51.9179 H       1  ZINC001127302705    0.1200
     46 H46        -9.9316    1.2352   53.1421 H       1  ZINC001127302705    0.1300
     47 H47        -8.6287   -0.8521   53.2368 H       1  ZINC001127302705    0.1200
     48 H48        -6.4456   -0.9931   52.1067 H       1  ZINC001127302705    0.1300
     49 H49        -5.5670    0.9520   50.8787 H       1  ZINC001127302705    0.1300
     50 H50        -5.0572    4.4425   52.6347 H       1  ZINC001127302705    0.1800
     51 H51        -2.4662    4.1414   52.1782 H       1  ZINC001127302705    0.1600
@<TRIPOS>BOND
     1     1     2    1
     2     1    29    1
     3     1    30    1
     4     1    31    1
     5     2     3    1
     6     2    32    1
     7     2    33    1
     8     3     4    1
     9     3     5    1
    10     3    14    1
    11     4    34    1
    12     4    35    1
    13     4    36    1
    14     5     6    1
    15     5    37    1
    16     5    38    1
    17     6     7    1
    18     7    12   ar
    19     7     8   ar
    20     8     9   ar
    21     9    10   ar
    22     9    39    1
    23    10    11   ar
    24    10    40    1
    25    11    12   ar
    26    11    41    1
    27    12    13    1
    28    14    15   am
    29    14    42    1
    30    15    16    2
    31    15    17    1
    32    17    28    1
    33    17    18    2
    34    18    19    1
    35    19    20    1
    36    19    27    1
    37    20    21    1
    38    20    43    1
    39    20    44    1
    40    21    26   ar
    41    21    22   ar
    42    22    23   ar
    43    22    45    1
    44    23    24   ar
    45    23    46    1
    46    24    25   ar
    47    24    47    1
    48    25    26   ar
    49    25    48    1
    50    26    49    1
    51    27    28    2
    52    27    50    1
    53    28    51    1
@<TRIPOS>SUBSTRUCTURE
     1 ZINC001127302705        1 TEMP              0 ****  ****    0 ROOT


##########                                Name:    ZINC001105194920
##########                DOCK_Rotatable_Bonds:                   8
##########                         Heavy_Atoms:                  25
##########                    Molecular_Weight:             346.392
##########                DOCK_Rotatable_Bonds:                   8
##########                       Formal_Charge:          -0.0100007
##########                     HBond_Acceptors:                  10
##########                        HBond_Donors:                   3
##########                         Heavy_Atoms:                  25
##########                          Grid_Score:          -38.974045
##########                     Grid_vdw_energy:          -36.628357
##########                      Grid_es_energy:           -2.345688
##########           Internal_energy_repulsive:            9.291929

@<TRIPOS>MOLECULE
ZINC001105194920
 47 49 1 0 0
SMALL
USER_CHARGES


@<TRIPOS>ATOM
      1 C1         -6.6147   -0.6614   51.4701 C.3     1  ZINC001105194920    0.0300
      2 O2         -6.1692    0.6033   51.9642 O.3     1  ZINC001105194920   -0.3900
      3 C3         -6.5878    1.7169   51.1725 C.3     1  ZINC001105194920    0.0700
      4 C4         -6.0314    3.0086   51.7747 C.3     1  ZINC001105194920    0.0900
      5 H5         -6.4163    3.8637   51.2189 H       1  ZINC001105194920    0.0900
      6 C6         -6.4627    3.1159   53.2388 C.3     1  ZINC001105194920   -0.1800
      7 N7         -4.5646    2.9935   51.6961 N.3     1  ZINC001105194920   -0.6800
      8 C8         -4.0976    3.6173   50.4508 C.3     1  ZINC001105194920    0.1400
      9 C9         -3.2918    2.6189   49.6603 C.2     1  ZINC001105194920   -0.0200
     10 C10        -2.1169    2.0552   50.0261 C.2     1  ZINC001105194920   -0.0200
     11 N11        -1.7648    1.2278   49.0150 N.pl3   1  ZINC001105194920   -0.2800
     12 C12        -0.5582    0.3984   48.9652 C.3     1  ZINC001105194920    0.1000
     13 C13        -0.3570   -0.3229   47.6203 C.3     1  ZINC001105194920    0.1100
     14 N14         0.4158    0.8663   47.2124 N.am    1  ZINC001105194920   -0.6300
     15 C15         0.7211    1.4342   46.0288 C.2     1  ZINC001105194920    0.6200
     16 O16         1.3961    2.4448   45.9957 O.2     1  ZINC001105194920   -0.5400
     17 C17         0.2354    0.8288   44.7719 C.ar    1  ZINC001105194920   -0.0600
     18 N18        -1.0552    0.5449   44.6219 N.ar    1  ZINC001105194920   -0.3700
     19 C19        -1.4850    0.0049   43.4996 C.ar    1  ZINC001105194920   -0.0200
     20 C20        -0.5974   -0.2708   42.4693 C.ar    1  ZINC001105194920    0.1500
     21 N21         0.6870    0.0051   42.6039 N.ar    1  ZINC001105194920   -0.5100
     22 C22         1.1335    0.5553   43.7270 C.ar    1  ZINC001105194920    0.4200
     23 N23         2.4775    0.8463   43.8719 N.pl3   1  ZINC001105194920   -0.8100
     24 C24         0.7202    1.1841   48.6211 C.3     1  ZINC001105194920    0.1100
     25 N25        -2.6723    1.2944   48.1047 N.2     1  ZINC001105194920   -0.0800
     26 N26        -3.5998    2.1111   48.4617 N.2     1  ZINC001105194920   -0.2600
     27 H27        -6.2239   -0.8167   50.4645 H       1  ZINC001105194920    0.0400
     28 H28        -6.2558   -1.4545   52.1260 H       1  ZINC001105194920    0.0800
     29 H29        -7.7042   -0.6775   51.4430 H       1  ZINC001105194920    0.0400
     30 H30        -6.2146    1.6001   50.1550 H       1  ZINC001105194920    0.0600
     31 H31        -7.6767    1.7628   51.1570 H       1  ZINC001105194920    0.0500
     32 H32        -6.0778    2.2607   53.7944 H       1  ZINC001105194920    0.0700
     33 H33        -6.0663    4.0362   53.6678 H       1  ZINC001105194920    0.0500
     34 H34        -7.5510    3.1272   53.2970 H       1  ZINC001105194920    0.0600
     35 H35        -4.1547    3.4427   52.5014 H       1  ZINC001105194920    0.3500
     36 H36        -4.9563    3.9394   49.8616 H       1  ZINC001105194920    0.0900
     37 H37        -3.4753    4.4802   50.6878 H       1  ZINC001105194920    0.0500
     38 H38        -1.5701    2.2310   50.9408 H       1  ZINC001105194920    0.1800
     39 H39        -0.4533   -0.2517   49.8339 H       1  ZINC001105194920    0.1500
     40 H40         0.2409   -1.2314   47.6941 H       1  ZINC001105194920    0.1200
     41 H41        -1.2783   -0.4634   47.0548 H       1  ZINC001105194920    0.1000
     42 H42        -2.5336   -0.2247   43.3812 H       1  ZINC001105194920    0.1800
     43 H43        -0.9587   -0.7135   41.5529 H       1  ZINC001105194920    0.1800
     44 H44         3.0840    0.7209   43.1255 H       1  ZINC001105194920    0.4000
     45 H45         2.8137    1.1758   44.7201 H       1  ZINC001105194920    0.4300
     46 H46         0.6588    2.2470   48.8548 H       1  ZINC001105194920    0.1100
     47 H47         1.6345    0.7185   48.9889 H       1  ZINC001105194920    0.1200
@<TRIPOS>BOND
     1     1     2    1
     2     1    27    1
     3     1    28    1
     4     1    29    1
     5     2     3    1
     6     3     4    1
     7     3    30    1
     8     3    31    1
     9     4     5    1
    10     4     6    1
    11     4     7    1
    12     6    32    1
    13     6    33    1
    14     6    34    1
    15     7     8    1
    16     7    35    1
    17     8     9    1
    18     8    36    1
    19     8    37    1
    20     9    26    1
    21     9    10    2
    22    10    11    1
    23    10    38    1
    24    11    12    1
    25    11    25    1
    26    12    24    1
    27    12    13    1
    28    12    39    1
    29    13    14    1
    30    13    40    1
    31    13    41    1
    32    14    15   am
    33    14    24    1
    34    15    16    2
    35    15    17    1
    36    17    22   ar
    37    17    18   ar
    38    18    19   ar
    39    19    20   ar
    40    19    42    1
    41    20    21   ar
    42    20    43    1
    43    21    22   ar
    44    22    23    1
    45    23    44    1
    46    23    45    1
    47    24    46    1
    48    24    47    1
    49    25    26    2
@<TRIPOS>SUBSTRUCTURE
     1 ZINC001105194920        1 TEMP              0 ****  ****    0 ROOT


##########                                Name:    ZINC000762020937
##########                DOCK_Rotatable_Bonds:                  10
##########                         Heavy_Atoms:                  28
##########                    Molecular_Weight:             391.467
##########                DOCK_Rotatable_Bonds:                  10
##########                       Formal_Charge:         -1.8999e-07
##########                     HBond_Acceptors:                   8
##########                        HBond_Donors:                   1
##########                         Heavy_Atoms:                  28
##########                          Grid_Score:          -38.904716
##########                     Grid_vdw_energy:          -37.131252
##########                      Grid_es_energy:           -1.773463
##########           Internal_energy_repulsive:           31.760065

@<TRIPOS>MOLECULE
ZINC000762020937
 57 58 1 0 0
SMALL
USER_CHARGES


@<TRIPOS>ATOM
      1 C1         -1.3214   -0.4842   42.7446 C.3     1  ZINC000762020937    0.0200
      2 O2         -0.5980    0.4952   43.4928 O.3     1  ZINC000762020937   -0.3000
      3 C3         -0.6665    0.4110   44.8484 C.ar    1  ZINC000762020937    0.1100
      4 C4         -1.2729   -0.6815   45.4463 C.ar    1  ZINC000762020937   -0.1700
      5 C5         -1.3413   -0.7657   46.8249 C.ar    1  ZINC000762020937   -0.1000
      6 C6         -0.8060    0.2386   47.6091 C.ar    1  ZINC000762020937   -0.1000
      7 C7         -0.8837    0.1420   49.1110 C.3     1  ZINC000762020937    0.0200
      8 C8         -1.3559    1.4572   49.6751 C.2     1  ZINC000762020937    0.1900
      9 N9         -2.5717    1.7445   50.0738 N.2     1  ZINC000762020937   -0.4700
     10 C10        -2.5223    3.0206   50.4955 C.2     1  ZINC000762020937    0.1600
     11 C11        -3.6713    3.8210   51.0525 C.3     1  ZINC000762020937    0.2600
     12 H12        -4.2274    4.2769   50.2333 H       1  ZINC000762020937    0.1200
     13 N13        -4.5587    2.9373   51.8128 N.am    1  ZINC000762020937   -0.7100
     14 C14        -5.4757    2.1876   51.1696 C.2     1  ZINC000762020937    0.6600
     15 O15        -5.5654    2.2435   49.9591 O.2     1  ZINC000762020937   -0.5600
     16 O16        -6.2923    1.3767   51.8685 O.3     1  ZINC000762020937   -0.3600
     17 C17        -7.2673    2.0124   52.7366 C.3     1  ZINC000762020937    0.1400
     18 C18        -7.7537    3.3119   52.0919 C.3     1  ZINC000762020937   -0.1800
     19 C19        -8.4550    1.0707   52.9452 C.3     1  ZINC000762020937   -0.1400
     20 C20        -6.6205    2.3243   54.0877 C.3     1  ZINC000762020937   -0.1800
     21 C21        -3.1308    4.9162   51.9738 C.3     1  ZINC000762020937   -0.1000
     22 C22        -4.2738    5.8458   52.3862 C.3     1  ZINC000762020937   -0.1400
     23 C23        -2.5179    4.2769   53.2214 C.3     1  ZINC000762020937   -0.1400
     24 N24        -1.3018    3.4367   50.3349 N.2     1  ZINC000762020937   -0.3700
     25 O25        -0.6144    2.5518   49.8701 O.3     1  ZINC000762020937    0.0900
     26 C26        -0.1989    1.3318   47.0185 C.ar    1  ZINC000762020937   -0.1500
     27 C27        -0.1223    1.4198   45.6382 C.ar    1  ZINC000762020937    0.1000
     28 O28         0.4744    2.4941   45.0559 O.3     1  ZINC000762020937   -0.3100
     29 C29         0.4411    3.7260   45.7794 C.3     1  ZINC000762020937    0.0200
     30 H30        -0.9522   -1.4786   42.9954 H       1  ZINC000762020937    0.0600
     31 H31        -2.3816   -0.4179   42.9890 H       1  ZINC000762020937    0.0600
     32 H32        -1.1821   -0.3030   41.6788 H       1  ZINC000762020937    0.1000
     33 H33        -1.6926   -1.4673   44.8358 H       1  ZINC000762020937    0.1400
     34 H34        -1.8144   -1.6180   47.2898 H       1  ZINC000762020937    0.1300
     35 H35        -1.5847   -0.6451   49.3886 H       1  ZINC000762020937    0.1200
     36 H36         0.1028   -0.0919   49.5115 H       1  ZINC000762020937    0.1200
     37 H37        -4.4863    2.8917   52.7790 H       1  ZINC000762020937    0.4100
     38 H38        -8.2144    3.0897   51.1294 H       1  ZINC000762020937    0.0600
     39 H39        -8.4856    3.7891   52.7436 H       1  ZINC000762020937    0.0700
     40 H40        -6.9074    3.9826   51.9434 H       1  ZINC000762020937    0.0900
     41 H41        -8.1086    0.1450   53.4045 H       1  ZINC000762020937    0.0700
     42 H42        -9.1870    1.5480   53.5968 H       1  ZINC000762020937    0.0800
     43 H43        -8.9158    0.8486   51.9827 H       1  ZINC000762020937    0.0700
     44 H44        -5.7742    2.9951   53.9391 H       1  ZINC000762020937    0.0900
     45 H45        -7.3523    2.8015   54.7394 H       1  ZINC000762020937    0.0700
     46 H46        -6.2740    1.3985   54.5470 H       1  ZINC000762020937    0.0600
     47 H47        -2.3678    5.4900   51.4475 H       1  ZINC000762020937    0.0800
     48 H48        -5.0368    5.2722   52.9126 H       1  ZINC000762020937    0.0600
     49 H49        -3.8887    6.6262   53.0427 H       1  ZINC000762020937    0.0600
     50 H50        -4.7104    6.3013   51.4975 H       1  ZINC000762020937    0.0500
     51 H51        -1.7036    3.6146   52.9275 H       1  ZINC000762020937    0.0500
     52 H52        -2.1328    5.0572   53.8778 H       1  ZINC000762020937    0.0600
     53 H53        -3.2808    3.7032   53.7477 H       1  ZINC000762020937    0.0700
     54 H54         0.2187    2.1152   47.6336 H       1  ZINC000762020937    0.1400
     55 H55         0.9416    3.5974   46.7391 H       1  ZINC000762020937    0.0600
     56 H56         0.9509    4.4990   45.2044 H       1  ZINC000762020937    0.1000
     57 H57        -0.5948    4.0213   45.9465 H       1  ZINC000762020937    0.0600
@<TRIPOS>BOND
     1     1     2    1
     2     1    30    1
     3     1    31    1
     4     1    32    1
     5     2     3    1
     6     3    27   ar
     7     3     4   ar
     8     4     5   ar
     9     4    33    1
    10     5     6   ar
    11     5    34    1
    12     6     7    1
    13     6    26   ar
    14     7     8    1
    15     7    35    1
    16     7    36    1
    17     8    25    1
    18     8     9    2
    19     9    10    1
    20    10    11    1
    21    10    24    2
    22    11    12    1
    23    11    13    1
    24    11    21    1
    25    13    14   am
    26    13    37    1
    27    14    15    2
    28    14    16    1
    29    16    17    1
    30    17    18    1
    31    17    19    1
    32    17    20    1
    33    18    38    1
    34    18    39    1
    35    18    40    1
    36    19    41    1
    37    19    42    1
    38    19    43    1
    39    20    44    1
    40    20    45    1
    41    20    46    1
    42    21    22    1
    43    21    23    1
    44    21    47    1
    45    22    48    1
    46    22    49    1
    47    22    50    1
    48    23    51    1
    49    23    52    1
    50    23    53    1
    51    24    25    1
    52    26    27   ar
    53    26    54    1
    54    27    28    1
    55    28    29    1
    56    29    55    1
    57    29    56    1
    58    29    57    1
@<TRIPOS>SUBSTRUCTURE
     1 ZINC000762020937        1 TEMP              0 ****  ****    0 ROOT


##########                                Name:    ZINC000492313853
##########                DOCK_Rotatable_Bonds:                   8
##########                         Heavy_Atoms:                  30
##########                    Molecular_Weight:             418.422
##########                DOCK_Rotatable_Bonds:                   8
##########                       Formal_Charge:          -0.0100008
##########                     HBond_Acceptors:                  10
##########                        HBond_Donors:                   2
##########                         Heavy_Atoms:                  30
##########                          Grid_Score:          -38.762592
##########                     Grid_vdw_energy:          -38.615623
##########                      Grid_es_energy:           -0.146969
##########           Internal_energy_repulsive:           13.182432

@<TRIPOS>MOLECULE
ZINC000492313853
 51 53 1 0 0
SMALL
USER_CHARGES


@<TRIPOS>ATOM
      1 C1          1.8354    0.1726   41.4286 C.3     1  ZINC000492313853    0.0900
      2 N2          0.5343   -0.1562   42.0166 N.pl3   1  ZINC000492313853   -0.6200
      3 C3         -0.4790   -0.8454   41.2139 C.3     1  ZINC000492313853    0.1000
      4 C4          0.2615    0.1857   43.3360 C.ar    1  ZINC000492313853    0.4100
      5 C5         -1.0176   -0.0070   43.8475 C.ar    1  ZINC000492313853   -0.2400
      6 C6         -1.2751    0.3371   45.1625 C.ar    1  ZINC000492313853   -0.0100
      7 C7         -0.2410    0.8644   45.9242 C.ar    1  ZINC000492313853   -0.2300
      8 C8         -0.4756    1.2528   47.3612 C.3     1  ZINC000492313853    0.2000
      9 N9         -1.8233    1.8095   47.5029 N.am    1  ZINC000492313853   -0.7300
     10 C10        -2.4343    1.7979   48.7041 C.2     1  ZINC000492313853    0.7100
     11 O11        -1.8665    1.3267   49.6706 O.2     1  ZINC000492313853   -0.5600
     12 N12        -3.6748    2.3085   48.8341 N.am    1  ZINC000492313853   -0.6600
     13 C13        -4.3080    2.2950   50.0772 C.2     1  ZINC000492313853    0.3300
     14 C14        -5.3677    1.5202   50.4285 C.2     1  ZINC000492313853   -0.2600
     15 C15        -5.6930    1.8170   51.7652 C.2     1  ZINC000492313853    0.1200
     16 C16        -6.7894    1.1997   52.5523 C.ar    1  ZINC000492313853   -0.0100
     17 C17        -7.4536    0.0765   52.0643 C.ar    1  ZINC000492313853   -0.0600
     18 C18        -8.4724   -0.4939   52.8007 C.ar    1  ZINC000492313853   -0.1200
     19 C19        -8.8339    0.0475   54.0209 C.ar    1  ZINC000492313853   -0.0700
     20 C20        -8.1776    1.1627   54.5103 C.ar    1  ZINC000492313853   -0.1900
     21 C21        -8.5768    1.7468   55.8408 C.3     1  ZINC000492313853    0.5100
     22 F22        -8.7803    0.7134   56.7617 F       1  ZINC000492313853   -0.1800
     23 F23        -7.5611    2.5903   56.3034 F       1  ZINC000492313853   -0.1800
     24 F24        -9.7597    2.4790   55.6928 F       1  ZINC000492313853   -0.1800
     25 C25        -7.1543    1.7379   53.7848 C.ar    1  ZINC000492313853   -0.0400
     26 N26        -4.8563    2.7370   52.1961 N.2     1  ZINC000492313853   -0.2700
     27 N27        -3.9724    3.0499   51.1559 N.pl3   1  ZINC000492313853   -0.3900
     28 C28        -2.8826    4.0272   51.2169 C.3     1  ZINC000492313853    0.1000
     29 C29         1.0047    1.0286   45.3519 C.ar    1  ZINC000492313853    0.1700
     30 N30         1.2230    0.6868   44.0963 N.ar    1  ZINC000492313853   -0.5400
     31 H31         1.7881    1.1610   40.9714 H       1  ZINC000492313853    0.0600
     32 H32         2.5976    0.1689   42.2079 H       1  ZINC000492313853    0.0700
     33 H33         2.0884   -0.5673   40.6693 H       1  ZINC000492313853    0.0700
     34 H34        -0.0870   -1.0291   40.2135 H       1  ZINC000492313853    0.0700
     35 H35        -0.7316   -1.7952   41.6851 H       1  ZINC000492313853    0.0600
     36 H36        -1.3724   -0.2246   41.1457 H       1  ZINC000492313853    0.0600
     37 H37        -1.7990   -0.4193   43.2266 H       1  ZINC000492313853    0.1300
     38 H38        -2.2586    0.1992   45.5868 H       1  ZINC000492313853    0.1400
     39 H39        -0.3776    0.3723   47.9962 H       1  ZINC000492313853    0.0800
     40 H40         0.2595    2.0000   47.6602 H       1  ZINC000492313853    0.0800
     41 H41        -2.2758    2.1864   46.7322 H       1  ZINC000492313853    0.4000
     42 H42        -4.1273    2.6855   48.0634 H       1  ZINC000492313853    0.4100
     43 H43        -5.8708    0.8049   49.7948 H       1  ZINC000492313853    0.1800
     44 H44        -7.1723   -0.3468   51.1114 H       1  ZINC000492313853    0.1400
     45 H45        -8.9882   -1.3644   52.4232 H       1  ZINC000492313853    0.1400
     46 H46        -9.6317   -0.4017   54.5937 H       1  ZINC000492313853    0.1400
     47 H47        -6.6425    2.6085   54.1677 H       1  ZINC000492313853    0.1400
     48 H48        -1.9714    3.5345   51.5561 H       1  ZINC000492313853    0.0800
     49 H49        -2.7191    4.4514   50.2263 H       1  ZINC000492313853    0.0800
     50 H50        -3.1466    4.8226   51.9139 H       1  ZINC000492313853    0.1000
     51 H51         1.8121    1.4383   45.9408 H       1  ZINC000492313853    0.1600
@<TRIPOS>BOND
     1     1     2    1
     2     1    31    1
     3     1    32    1
     4     1    33    1
     5     2     3    1
     6     2     4    1
     7     3    34    1
     8     3    35    1
     9     3    36    1
    10     4    30   ar
    11     4     5   ar
    12     5     6   ar
    13     5    37    1
    14     6     7   ar
    15     6    38    1
    16     7     8    1
    17     7    29   ar
    18     8     9    1
    19     8    39    1
    20     8    40    1
    21     9    10   am
    22     9    41    1
    23    10    11    2
    24    10    12   am
    25    12    13    1
    26    12    42    1
    27    13    27    1
    28    13    14    2
    29    14    15    1
    30    14    43    1
    31    15    16    1
    32    15    26    2
    33    16    25   ar
    34    16    17   ar
    35    17    18   ar
    36    17    44    1
    37    18    19   ar
    38    18    45    1
    39    19    20   ar
    40    19    46    1
    41    20    21    1
    42    20    25   ar
    43    21    22    1
    44    21    23    1
    45    21    24    1
    46    25    47    1
    47    26    27    1
    48    27    28    1
    49    28    48    1
    50    28    49    1
    51    28    50    1
    52    29    30   ar
    53    29    51    1
@<TRIPOS>SUBSTRUCTURE
     1 ZINC000492313853        1 TEMP              0 ****  ****    0 ROOT


##########                                Name:    ZINC000503413572
##########                DOCK_Rotatable_Bonds:                   7
##########                         Heavy_Atoms:                  26
##########                    Molecular_Weight:             355.375
##########                DOCK_Rotatable_Bonds:                   7
##########                       Formal_Charge:        -1.71363e-07
##########                     HBond_Acceptors:                   9
##########                        HBond_Donors:                   1
##########                         Heavy_Atoms:                  26
##########                          Grid_Score:          -38.439701
##########                     Grid_vdw_energy:          -38.276123
##########                      Grid_es_energy:           -0.163580
##########           Internal_energy_repulsive:            8.567909

@<TRIPOS>MOLECULE
ZINC000503413572
 44 47 1 0 0
SMALL
USER_CHARGES


@<TRIPOS>ATOM
      1 C1         -7.3080    1.5822   54.8828 C.3     1  ZINC000503413572   -0.1200
      2 C2         -8.6174    0.8894   54.6062 C.ar    1  ZINC000503413572   -0.0200
      3 C3         -9.6142    0.8894   55.5618 C.ar    1  ZINC000503413572   -0.1400
      4 C4        -10.8181    0.2532   55.3079 C.ar    1  ZINC000503413572    0.1300
      5 F5        -11.7924    0.2546   56.2438 F       1  ZINC000503413572   -0.1300
      6 C6        -11.0244   -0.3837   54.0958 C.ar    1  ZINC000503413572   -0.1400
      7 C7        -10.0295   -0.3857   53.1377 C.ar    1  ZINC000503413572   -0.0700
      8 C8         -8.8244    0.2557   53.3883 C.ar    1  ZINC000503413572    0.1000
      9 N9         -7.8131    0.2552   52.4162 N.pl3   1  ZINC000503413572   -0.3100
     10 C10        -7.2826    1.3365   51.8052 C.2     1  ZINC000503413572    0.1100
     11 C11        -6.3340    0.8740   50.9375 C.2     1  ZINC000503413572   -0.1000
     12 C12        -5.4951    1.7054   50.0537 C.2     1  ZINC000503413572    0.6100
     13 O13        -5.9937    2.6192   49.4254 O.2     1  ZINC000503413572   -0.5300
     14 N14        -4.1761    1.4520   49.9427 N.am    1  ZINC000503413572   -0.7200
     15 C15        -3.3425    2.2788   49.0663 C.3     1  ZINC000503413572    0.1100
     16 C16        -1.8688    1.9351   49.2912 C.3     1  ZINC000503413572    0.1000
     17 N17        -1.5224    0.7403   48.5173 N.pl3   1  ZINC000503413572   -0.4700
     18 C18        -1.2018   -0.4823   49.0054 C.2     1  ZINC000503413572    0.1500
     19 N19        -0.9630   -1.2580   47.9832 N.2     1  ZINC000503413572   -0.2900
     20 N20        -1.1151   -0.5951   46.8918 N.2     1  ZINC000503413572   -0.2900
     21 C21        -1.4633    0.6321   47.1680 C.2     1  ZINC000503413572    0.2100
     22 C22        -1.7386    1.7283   46.1711 C.3     1  ZINC000503413572   -0.1000
     23 C23        -0.6273    2.7491   45.9187 C.3     1  ZINC000503413572   -0.1500
     24 C24        -0.9576    1.6994   44.8558 C.3     1  ZINC000503413572   -0.1600
     25 N25        -6.2942   -0.4667   51.0253 N.2     1  ZINC000503413572   -0.2000
     26 N26        -7.1538   -0.8677   51.8960 N.2     1  ZINC000503413572   -0.0400
     27 H27        -7.3383    2.5927   54.4754 H       1  ZINC000503413572    0.0900
     28 H28        -7.1420    1.6292   55.9591 H       1  ZINC000503413572    0.0800
     29 H29        -6.4964    1.0257   54.4140 H       1  ZINC000503413572    0.0700
     30 H30        -9.4549    1.3854   56.5078 H       1  ZINC000503413572    0.1500
     31 H31       -11.9636   -0.8796   53.8997 H       1  ZINC000503413572    0.1500
     32 H32       -10.1906   -0.8830   52.1926 H       1  ZINC000503413572    0.1500
     33 H33        -7.5561    2.3682   51.9702 H       1  ZINC000503413572    0.2100
     34 H34        -3.7785    0.7222   50.4430 H       1  ZINC000503413572    0.4100
     35 H35        -3.6061    2.0859   48.0264 H       1  ZINC000503413572    0.0800
     36 H36        -3.5090    3.3317   49.2940 H       1  ZINC000503413572    0.0800
     37 H37        -1.2474    2.7702   48.9679 H       1  ZINC000503413572    0.1100
     38 H38        -1.6978    1.7438   50.3507 H       1  ZINC000503413572    0.1100
     39 H39        -1.1522   -0.7629   50.0471 H       1  ZINC000503413572    0.2200
     40 H40        -2.7678    2.0856   46.1376 H       1  ZINC000503413572    0.1200
     41 H41        -0.9253    3.7784   45.7192 H       1  ZINC000503413572    0.1100
     42 H42         0.3030    2.6279   46.4738 H       1  ZINC000503413572    0.1100
     43 H43        -0.2446    0.8876   44.7115 H       1  ZINC000503413572    0.1000
     44 H44        -1.4730    2.0381   43.9570 H       1  ZINC000503413572    0.1100
@<TRIPOS>BOND
     1     1     2    1
     2     1    27    1
     3     1    28    1
     4     1    29    1
     5     2     8   ar
     6     2     3   ar
     7     3     4   ar
     8     3    30    1
     9     4     5    1
    10     4     6   ar
    11     6     7   ar
    12     6    31    1
    13     7     8   ar
    14     7    32    1
    15     8     9    1
    16     9    26    1
    17     9    10    1
    18    10    11    2
    19    10    33    1
    20    11    12    1
    21    11    25    1
    22    12    13    2
    23    12    14   am
    24    14    15    1
    25    14    34    1
    26    15    16    1
    27    15    35    1
    28    15    36    1
    29    16    17    1
    30    16    37    1
    31    16    38    1
    32    17    21    1
    33    17    18    1
    34    18    19    2
    35    18    39    1
    36    19    20    1
    37    20    21    2
    38    21    22    1
    39    22    24    1
    40    22    23    1
    41    22    40    1
    42    23    24    1
    43    23    41    1
    44    23    42    1
    45    24    43    1
    46    24    44    1
    47    25    26    2
@<TRIPOS>SUBSTRUCTURE
     1 ZINC000503413572        1 TEMP              0 ****  ****    0 ROOT


##########                                Name:    ZINC000487792031
##########                DOCK_Rotatable_Bonds:                  12
##########                         Heavy_Atoms:                  29
##########                    Molecular_Weight:             414.569
##########                DOCK_Rotatable_Bonds:                  12
##########                       Formal_Charge:          -0.0100001
##########                     HBond_Acceptors:                   6
##########                        HBond_Donors:                   1
##########                         Heavy_Atoms:                  29
##########                          Grid_Score:          -38.412724
##########                     Grid_vdw_energy:          -36.539745
##########                      Grid_es_energy:           -1.872980
##########           Internal_energy_repulsive:           21.556734

@<TRIPOS>MOLECULE
ZINC000487792031
 59 60 1 0 0
SMALL
USER_CHARGES


@<TRIPOS>ATOM
      1 C1         -7.3265   -0.7749   51.7888 C.2     1  ZINC000487792031   -0.1900
      2 C2         -7.7313    0.4308   52.1028 C.2     1  ZINC000487792031   -0.1500
      3 C3         -8.5119    0.6569   53.3719 C.3     1  ZINC000487792031   -0.0900
      4 C4         -8.2116    2.0560   53.9130 C.3     1  ZINC000487792031   -0.0900
      5 C5         -6.7698    2.1071   54.4226 C.3     1  ZINC000487792031   -0.0700
      6 H6         -6.2693    1.1667   54.1918 H       1  ZINC000487792031    0.1100
      7 C7         -6.0399    3.2423   53.7521 C.2     1  ZINC000487792031    0.5200
      8 O8         -6.5406    4.3463   53.7132 O.2     1  ZINC000487792031   -0.5300
      9 N9         -4.8308    3.0308   53.1955 N.am    1  ZINC000487792031   -0.7200
     10 C10        -4.1221    4.1339   52.5421 C.3     1  ZINC000487792031    0.1500
     11 C11        -3.3481    3.6049   51.3622 C.ar    1  ZINC000487792031   -0.0500
     12 C12        -4.0167    3.0198   50.3031 C.ar    1  ZINC000487792031   -0.1200
     13 C13        -3.3067    2.5346   49.2209 C.ar    1  ZINC000487792031   -0.0200
     14 C14        -1.9281    2.6348   49.1973 C.ar    1  ZINC000487792031   -0.6700
     15 S15        -1.0231    2.0159   47.8181 S.o2    1  ZINC000487792031    2.6900
     16 O16        -1.9791    1.4485   46.9328 O.2     1  ZINC000487792031   -0.9500
     17 O17        -0.1233    3.0462   47.4335 O.2     1  ZINC000487792031   -0.9500
     18 N18        -0.0913    0.7615   48.3662 N.am    1  ZINC000487792031   -1.0000
     19 C19        -0.7254   -0.4112   48.9735 C.3     1  ZINC000487792031    0.1200
     20 C20        -0.8999   -1.5020   47.9150 C.3     1  ZINC000487792031   -0.1800
     21 C21         1.3673    0.8247   48.2438 C.3     1  ZINC000487792031    0.1100
     22 C22         1.7640    0.6492   46.7766 C.3     1  ZINC000487792031   -0.1800
     23 C23        -1.2596    3.2211   50.2559 C.ar    1  ZINC000487792031   -0.0200
     24 C24        -1.9699    3.7098   51.3364 C.ar    1  ZINC000487792031   -0.1200
     25 C25        -6.7715    2.3225   55.9141 C.ar    1  ZINC000487792031   -0.0800
     26 C26        -7.6395    1.6043   56.7152 C.ar    1  ZINC000487792031   -0.1100
     27 C27        -7.6410    1.8019   58.0834 C.ar    1  ZINC000487792031   -0.1100
     28 C28        -6.7743    2.7173   58.6504 C.ar    1  ZINC000487792031   -0.1200
     29 C29        -5.9056    3.4347   57.8495 C.ar    1  ZINC000487792031   -0.1200
     30 C30        -5.9011    3.2340   56.4818 C.ar    1  ZINC000487792031   -0.1100
     31 H31        -6.7670   -0.9368   50.8792 H       1  ZINC000487792031    0.1000
     32 H32        -7.5483   -1.6061   52.4415 H       1  ZINC000487792031    0.1000
     33 H33        -7.5058    1.2628   51.4521 H       1  ZINC000487792031    0.1100
     34 H34        -9.5781    0.5691   53.1632 H       1  ZINC000487792031    0.0700
     35 H35        -8.2243   -0.0888   54.1131 H       1  ZINC000487792031    0.0700
     36 H36        -8.3417    2.7892   53.1169 H       1  ZINC000487792031    0.0800
     37 H37        -8.8945    2.2833   54.7315 H       1  ZINC000487792031    0.0700
     38 H38        -4.4299    2.1481   53.2275 H       1  ZINC000487792031    0.4000
     39 H39        -4.8427    4.8769   52.2003 H       1  ZINC000487792031    0.0800
     40 H40        -3.4340    4.5943   53.2511 H       1  ZINC000487792031    0.0800
     41 H41        -5.0936    2.9416   50.3214 H       1  ZINC000487792031    0.1400
     42 H42        -3.8289    2.0770   48.3937 H       1  ZINC000487792031    0.1400
     43 H43        -0.0973   -0.7863   49.7816 H       1  ZINC000487792031    0.0800
     44 H44        -1.7009   -0.1316   49.3714 H       1  ZINC000487792031    0.0800
     45 H45        -1.5280   -1.1271   47.1069 H       1  ZINC000487792031    0.0600
     46 H46         0.0756   -1.7817   47.5171 H       1  ZINC000487792031    0.0600
     47 H47        -1.3717   -2.3746   48.3668 H       1  ZINC000487792031    0.0700
     48 H48         1.7204    1.7916   48.6025 H       1  ZINC000487792031    0.0900
     49 H49         1.8166    0.0301   48.8393 H       1  ZINC000487792031    0.0900
     50 H50         1.4108   -0.3177   46.4180 H       1  ZINC000487792031    0.0600
     51 H51         1.3146    1.4438   46.1811 H       1  ZINC000487792031    0.0600
     52 H52         2.8491    0.6962   46.6856 H       1  ZINC000487792031    0.0700
     53 H53        -0.1827    3.2997   50.2374 H       1  ZINC000487792031    0.1400
     54 H54        -1.4476    4.1678   52.1634 H       1  ZINC000487792031    0.1400
     55 H55        -8.3167    0.8892   56.2720 H       1  ZINC000487792031    0.1200
     56 H56        -8.3197    1.2413   58.7091 H       1  ZINC000487792031    0.1200
     57 H57        -6.7759    2.8721   59.7193 H       1  ZINC000487792031    0.1200
     58 H58        -5.2286    4.1501   58.2926 H       1  ZINC000487792031    0.1200
     59 H59        -5.2224    3.7946   55.8560 H       1  ZINC000487792031    0.1200
@<TRIPOS>BOND
     1     1     2    2
     2     1    31    1
     3     1    32    1
     4     2     3    1
     5     2    33    1
     6     3     4    1
     7     3    34    1
     8     3    35    1
     9     4     5    1
    10     4    36    1
    11     4    37    1
    12     5     6    1
    13     5     7    1
    14     5    25    1
    15     7     8    2
    16     7     9   am
    17     9    10    1
    18     9    38    1
    19    10    11    1
    20    10    39    1
    21    10    40    1
    22    11    24   ar
    23    11    12   ar
    24    12    13   ar
    25    12    41    1
    26    13    14   ar
    27    13    42    1
    28    14    15    1
    29    14    23   ar
    30    15    16    2
    31    15    17    2
    32    15    18   am
    33    18    19    1
    34    18    21    1
    35    19    20    1
    36    19    43    1
    37    19    44    1
    38    20    45    1
    39    20    46    1
    40    20    47    1
    41    21    22    1
    42    21    48    1
    43    21    49    1
    44    22    50    1
    45    22    51    1
    46    22    52    1
    47    23    24   ar
    48    23    53    1
    49    24    54    1
    50    25    30   ar
    51    25    26   ar
    52    26    27   ar
    53    26    55    1
    54    27    28   ar
    55    27    56    1
    56    28    29   ar
    57    28    57    1
    58    29    30   ar
    59    29    58    1
    60    30    59    1
@<TRIPOS>SUBSTRUCTURE
     1 ZINC000487792031        1 TEMP              0 ****  ****    0 ROOT


##########                                Name:    ZINC000621594459
##########                DOCK_Rotatable_Bonds:                  10
##########                         Heavy_Atoms:                  25
##########                    Molecular_Weight:             389.497
##########                DOCK_Rotatable_Bonds:                  10
##########                       Formal_Charge:         -7.7486e-07
##########                     HBond_Acceptors:                  10
##########                        HBond_Donors:                   3
##########                         Heavy_Atoms:                  25
##########                          Grid_Score:          -38.398708
##########                     Grid_vdw_energy:          -38.548183
##########                      Grid_es_energy:            0.149477
##########           Internal_energy_repulsive:           10.567994

@<TRIPOS>MOLECULE
ZINC000621594459
 48 49 1 0 0
SMALL
USER_CHARGES


@<TRIPOS>ATOM
      1 C1         -9.0378    0.7745   53.0839 C.3     1  ZINC000621594459   -0.1600
      2 C2         -7.8368    1.6884   52.8320 C.3     1  ZINC000621594459    0.1300
      3 C3         -7.0111    1.8104   54.1142 C.3     1  ZINC000621594459   -0.1800
      4 N4         -7.0055    1.1202   51.7680 N.am    1  ZINC000621594459   -1.1100
      5 S5         -6.2821    2.1168   50.6609 S.o2    1  ZINC000621594459    2.6200
      6 O6         -5.4994    1.2417   49.8603 O.2     1  ZINC000621594459   -0.9500
      7 O7         -7.3577    2.8572   50.1004 O.2     1  ZINC000621594459   -0.9400
      8 C8         -5.2150    3.1969   51.6535 C.3     1  ZINC000621594459   -0.6600
      9 C9         -4.3398    4.0417   50.7254 C.3     1  ZINC000621594459    0.1300
     10 N10        -3.2412    3.2214   50.2096 N.am    1  ZINC000621594459   -0.7200
     11 C11        -1.9894    3.4017   50.6752 C.2     1  ZINC000621594459    0.5600
     12 O12        -1.7722    4.2440   51.5242 O.2     1  ZINC000621594459   -0.5200
     13 C13        -0.8802    2.5749   50.1534 C.ar    1  ZINC000621594459   -0.1500
     14 C14         0.4431    2.9698   50.3549 C.ar    1  ZINC000621594459   -0.0300
     15 C15         1.4736    2.1935   49.8657 C.ar    1  ZINC000621594459   -0.1400
     16 C16         1.1972    1.0262   49.1765 C.ar    1  ZINC000621594459    0.0100
     17 C17        -0.1126    0.6293   48.9729 C.ar    1  ZINC000621594459   -0.6800
     18 S18        -0.4536   -0.8588   48.0931 S.o2    1  ZINC000621594459    2.7000
     19 O19         0.7906   -1.3165   47.5814 O.2     1  ZINC000621594459   -0.9400
     20 O20        -1.2823   -1.6442   48.9391 O.2     1  ZINC000621594459   -0.9500
     21 N21        -1.3777   -0.4515   46.7806 N.am    1  ZINC000621594459   -1.0900
     22 C22        -0.8564    0.4819   45.7790 C.3     1  ZINC000621594459    0.0800
     23 C23        -1.6248    0.6064   44.4619 C.3     1  ZINC000621594459   -0.1800
     24 C24        -1.6790    1.7390   45.4891 C.3     1  ZINC000621594459   -0.1900
     25 C25        -1.1519    1.3931   49.4620 C.ar    1  ZINC000621594459    0.0400
     26 H26        -9.6564    1.1973   53.8756 H       1  ZINC000621594459    0.0700
     27 H27        -9.6261    0.6876   52.1704 H       1  ZINC000621594459    0.0700
     28 H28        -8.6866   -0.2124   53.3851 H       1  ZINC000621594459    0.0600
     29 H29        -8.1881    2.6753   52.5308 H       1  ZINC000621594459    0.0900
     30 H30        -6.6598    0.8235   54.4155 H       1  ZINC000621594459    0.0700
     31 H31        -6.1554    2.4614   53.9348 H       1  ZINC000621594459    0.0600
     32 H32        -7.6296    2.2332   54.9059 H       1  ZINC000621594459    0.0700
     33 H33        -6.8788    0.1601   51.7119 H       1  ZINC000621594459    0.4200
     34 H34        -5.8322    3.8528   52.2674 H       1  ZINC000621594459    0.1400
     35 H35        -4.5799    2.5882   52.2971 H       1  ZINC000621594459    0.1400
     36 H36        -4.9410    4.4085   49.8934 H       1  ZINC000621594459    0.0900
     37 H37        -3.9327    4.8872   51.2800 H       1  ZINC000621594459    0.0900
     38 H38        -3.4147    2.5483   49.5330 H       1  ZINC000621594459    0.4000
     39 H39         0.6601    3.8812   50.8922 H       1  ZINC000621594459    0.1300
     40 H40         2.4981    2.4979   50.0210 H       1  ZINC000621594459    0.1400
     41 H41         2.0075    0.4224   48.7954 H       1  ZINC000621594459    0.1500
     42 H42        -2.2641   -0.8311   46.6750 H       1  ZINC000621594459    0.4200
     43 H43         0.2293    0.5706   45.7391 H       1  ZINC000621594459    0.1400
     44 H44        -1.0447    0.7769   43.5549 H       1  ZINC000621594459    0.1100
     45 H45        -2.5182   -0.0062   44.3405 H       1  ZINC000621594459    0.1000
     46 H46        -2.6081    1.8714   46.0437 H       1  ZINC000621594459    0.1000
     47 H47        -1.1346    2.6546   45.2581 H       1  ZINC000621594459    0.1000
     48 H48        -2.1738    1.0820   49.3028 H       1  ZINC000621594459    0.1600
@<TRIPOS>BOND
     1     1     2    1
     2     1    26    1
     3     1    27    1
     4     1    28    1
     5     2     3    1
     6     2     4    1
     7     2    29    1
     8     3    30    1
     9     3    31    1
    10     3    32    1
    11     4     5   am
    12     4    33    1
    13     5     6    2
    14     5     7    2
    15     5     8    1
    16     8     9    1
    17     8    34    1
    18     8    35    1
    19     9    10    1
    20     9    36    1
    21     9    37    1
    22    10    11   am
    23    10    38    1
    24    11    12    2
    25    11    13    1
    26    13    25   ar
    27    13    14   ar
    28    14    15   ar
    29    14    39    1
    30    15    16   ar
    31    15    40    1
    32    16    17   ar
    33    16    41    1
    34    17    18    1
    35    17    25   ar
    36    18    19    2
    37    18    20    2
    38    18    21   am
    39    21    22    1
    40    21    42    1
    41    22    24    1
    42    22    23    1
    43    22    43    1
    44    23    24    1
    45    23    44    1
    46    23    45    1
    47    24    46    1
    48    24    47    1
    49    25    48    1
@<TRIPOS>SUBSTRUCTURE
     1 ZINC000621594459        1 TEMP              0 ****  ****    0 ROOT


##########                                Name:    ZINC000512699033
##########                DOCK_Rotatable_Bonds:                   9
##########                         Heavy_Atoms:                  30
##########                    Molecular_Weight:              405.54
##########                DOCK_Rotatable_Bonds:                   9
##########                       Formal_Charge:           0.0199988
##########                     HBond_Acceptors:                   5
##########                        HBond_Donors:                   2
##########                         Heavy_Atoms:                  30
##########                          Grid_Score:          -38.374744
##########                     Grid_vdw_energy:          -37.161602
##########                      Grid_es_energy:           -1.213143
##########           Internal_energy_repulsive:           11.445002

@<TRIPOS>MOLECULE
ZINC000512699033
 61 64 1 0 0
SMALL
USER_CHARGES


@<TRIPOS>ATOM
      1 O1         -3.4632    3.3507   52.3013 O.2     1  ZINC000512699033   -0.5100
      2 C2         -3.7096    3.8103   51.2062 C.2     1  ZINC000512699033    0.5200
      3 C3         -5.1282    4.1606   50.8379 C.3     1  ZINC000512699033   -0.1500
      4 C4         -5.9222    2.8769   50.5882 C.3     1  ZINC000512699033    0.1300
      5 N5         -6.6294    2.4940   51.8127 N.am    1  ZINC000512699033   -0.7300
      6 C6         -7.0089    1.2143   51.9995 C.2     1  ZINC000512699033    0.5200
      7 O7         -6.7639    0.3796   51.1546 O.2     1  ZINC000512699033   -0.5300
      8 C8         -7.7380    0.8208   53.2585 C.3     1  ZINC000512699033   -0.1100
      9 C9         -7.3591    1.7803   54.3883 C.3     1  ZINC000512699033   -0.1100
     10 C10        -8.0993    1.3807   55.6663 C.3     1  ZINC000512699033   -0.1200
     11 C11        -9.6084    1.4485   55.4241 C.3     1  ZINC000512699033   -0.1200
     12 C12        -9.9872    0.4889   54.2942 C.3     1  ZINC000512699033   -0.1200
     13 C13        -9.2471    0.8885   53.0161 C.3     1  ZINC000512699033   -0.1000
     14 N14        -2.7138    4.0129   50.3208 N.am    1  ZINC000512699033   -0.6600
     15 C15        -1.3965    3.6876   50.6629 C.ar    1  ZINC000512699033    0.1700
     16 C16        -0.6118    4.6002   51.3552 C.ar    1  ZINC000512699033   -0.1400
     17 C17         0.6880    4.2758   51.6919 C.ar    1  ZINC000512699033   -0.1000
     18 C18         1.2079    3.0440   51.3397 C.ar    1  ZINC000512699033   -0.1400
     19 C19         0.4289    2.1328   50.6501 C.ar    1  ZINC000512699033   -0.0900
     20 C20        -0.8730    2.4488   50.3156 C.ar    1  ZINC000512699033   -0.1200
     21 C21        -1.7212    1.4553   49.5642 C.3     1  ZINC000512699033    0.0900
     22 N22        -0.8572    0.5936   48.7463 N.3     1  ZINC000512699033   -0.4700
     23 C23        -0.9550   -0.8177   49.1779 C.3     1  ZINC000512699033    0.0500
     24 C24        -0.7116   -1.5914   47.8618 C.3     1  ZINC000512699033   -0.0900
     25 C25        -1.1470   -0.5988   46.8023 C.ar    1  ZINC000512699033   -0.1400
     26 C26        -1.4488   -0.7600   45.4666 C.ar    1  ZINC000512699033   -0.0800
     27 C27        -1.8331    0.3299   44.7061 C.ar    1  ZINC000512699033   -0.1400
     28 C28        -1.9142    1.5817   45.2878 C.ar    1  ZINC000512699033   -0.0900
     29 C29        -1.6111    1.7487   46.6232 C.ar    1  ZINC000512699033   -0.1400
     30 C30        -1.2203    0.6563   47.3953 C.ar    1  ZINC000512699033    0.0900
     31 H31        -5.5879    4.7194   51.6531 H       1  ZINC000512699033    0.1100
     32 H32        -5.1290    4.7699   49.9340 H       1  ZINC000512699033    0.1000
     33 H33        -6.6443    3.0459   49.7893 H       1  ZINC000512699033    0.0800
     34 H34        -5.2397    2.0782   50.2978 H       1  ZINC000512699033    0.0800
     35 H35        -6.8242    3.1614   52.4891 H       1  ZINC000512699033    0.4000
     36 H36        -7.4599   -0.1959   53.5365 H       1  ZINC000512699033    0.1000
     37 H37        -6.2840    1.7320   54.5609 H       1  ZINC000512699033    0.0700
     38 H38        -7.6372    2.7968   54.1102 H       1  ZINC000512699033    0.0700
     39 H39        -7.8212    0.3641   55.9445 H       1  ZINC000512699033    0.0600
     40 H40        -7.8295    2.0642   56.4713 H       1  ZINC000512699033    0.0700
     41 H41       -10.1357    1.1638   56.3346 H       1  ZINC000512699033    0.0600
     42 H42        -9.8865    2.4651   55.1459 H       1  ZINC000512699033    0.0600
     43 H43        -9.7093   -0.5277   54.5723 H       1  ZINC000512699033    0.0600
     44 H44       -11.0624    0.5373   54.1216 H       1  ZINC000512699033    0.0700
     45 H45        -9.5251    1.9051   52.7381 H       1  ZINC000512699033    0.0700
     46 H46        -9.5170    0.2049   52.2112 H       1  ZINC000512699033    0.0700
     47 H47        -2.9103    4.3843   49.4466 H       1  ZINC000512699033    0.4200
     48 H48        -1.0173    5.5628   51.6300 H       1  ZINC000512699033    0.1500
     49 H49         1.2988    4.9853   52.2303 H       1  ZINC000512699033    0.1300
     50 H50         2.2247    2.7931   51.6035 H       1  ZINC000512699033    0.1200
     51 H51         0.8379    1.1715   50.3765 H       1  ZINC000512699033    0.1200
     52 H52        -2.2781    0.8431   50.2736 H       1  ZINC000512699033    0.0600
     53 H53        -2.4188    1.9883   48.9182 H       1  ZINC000512699033    0.0900
     54 H54        -0.1843   -1.0518   49.9123 H       1  ZINC000512699033    0.1000
     55 H55        -1.9471   -1.0327   49.5750 H       1  ZINC000512699033    0.0600
     56 H56         0.3440   -1.8384   47.7488 H       1  ZINC000512699033    0.0900
     57 H57        -1.3260   -2.4911   47.8236 H       1  ZINC000512699033    0.0800
     58 H58        -1.3850   -1.7383   45.0135 H       1  ZINC000512699033    0.1200
     59 H59        -2.0687    0.2034   43.6598 H       1  ZINC000512699033    0.1300
     60 H60        -2.2157    2.4320   44.6942 H       1  ZINC000512699033    0.1300
     61 H61        -1.6761    2.7291   47.0716 H       1  ZINC000512699033    0.1200
@<TRIPOS>BOND
     1     1     2    2
     2     2     3    1
     3     2    14   am
     4     3     4    1
     5     3    31    1
     6     3    32    1
     7     4     5    1
     8     4    33    1
     9     4    34    1
    10     5     6   am
    11     5    35    1
    12     6     7    2
    13     6     8    1
    14     8    13    1
    15     8     9    1
    16     8    36    1
    17     9    10    1
    18     9    37    1
    19     9    38    1
    20    10    11    1
    21    10    39    1
    22    10    40    1
    23    11    12    1
    24    11    41    1
    25    11    42    1
    26    12    13    1
    27    12    43    1
    28    12    44    1
    29    13    45    1
    30    13    46    1
    31    14    15    1
    32    14    47    1
    33    15    20   ar
    34    15    16   ar
    35    16    17   ar
    36    16    48    1
    37    17    18   ar
    38    17    49    1
    39    18    19   ar
    40    18    50    1
    41    19    20   ar
    42    19    51    1
    43    20    21    1
    44    21    22    1
    45    21    52    1
    46    21    53    1
    47    22    30    1
    48    22    23    1
    49    23    24    1
    50    23    54    1
    51    23    55    1
    52    24    25    1
    53    24    56    1
    54    24    57    1
    55    25    30   ar
    56    25    26   ar
    57    26    27   ar
    58    26    58    1
    59    27    28   ar
    60    27    59    1
    61    28    29   ar
    62    28    60    1
    63    29    30   ar
    64    29    61    1
@<TRIPOS>SUBSTRUCTURE
     1 ZINC000512699033        1 TEMP              0 ****  ****    0 ROOT


##########                                Name:    ZINC000506566356
##########                DOCK_Rotatable_Bonds:                  10
##########                         Heavy_Atoms:                  28
##########                    Molecular_Weight:               415.9
##########                DOCK_Rotatable_Bonds:                  10
##########                       Formal_Charge:           0.0199998
##########                     HBond_Acceptors:                   8
##########                        HBond_Donors:                   2
##########                         Heavy_Atoms:                  28
##########                          Grid_Score:          -38.345226
##########                     Grid_vdw_energy:          -36.854465
##########                      Grid_es_energy:           -1.490761
##########           Internal_energy_repulsive:            8.789249

@<TRIPOS>MOLECULE
ZINC000506566356
 46 48 1 0 0
SMALL
USER_CHARGES


@<TRIPOS>ATOM
      1 O1         -4.1445    1.9432   49.1706 O.2     1  ZINC000506566356   -0.5100
      2 C2         -3.3354    2.7132   49.6453 C.2     1  ZINC000506566356    0.5100
      3 N3         -3.7421    3.6831   50.4881 N.am    1  ZINC000506566356   -0.7000
      4 C4         -5.1616    3.8116   50.8266 C.3     1  ZINC000506566356    0.1200
      5 C5         -5.3510    3.5803   52.3272 C.3     1  ZINC000506566356   -0.0900
      6 C6         -6.4028    2.5230   52.5437 C.ar    1  ZINC000506566356   -0.0700
      7 C7         -7.5365    2.8164   53.2780 C.ar    1  ZINC000506566356   -0.1100
      8 C8         -8.5022    1.8471   53.4766 C.ar    1  ZINC000506566356   -0.1000
      9 C9         -8.3343    0.5841   52.9414 C.ar    1  ZINC000506566356   -0.1100
     10 C10        -7.1996    0.2898   52.2062 C.ar    1  ZINC000506566356   -0.0300
     11 Cl11       -6.9882   -1.2963   51.5331 Cl      1  ZINC000506566356   -0.0700
     12 C12        -6.2365    1.2617   52.0030 C.ar    1  ZINC000506566356   -0.1000
     13 C13        -1.8883    2.5822   49.3002 C.2     1  ZINC000506566356    0.5100
     14 O14        -1.1498    3.5396   49.4074 O.2     1  ZINC000506566356   -0.5000
     15 N15        -1.4024    1.4011   48.8698 N.am    1  ZINC000506566356   -0.6300
     16 C16        -0.0470    1.2784   48.5466 C.ar    1  ZINC000506566356    0.1100
     17 C17         0.8815    0.9934   49.5374 C.ar    1  ZINC000506566356   -0.0800
     18 C18         2.2201    0.8728   49.2154 C.ar    1  ZINC000506566356   -0.1400
     19 C19         2.6375    1.0354   47.9074 C.ar    1  ZINC000506566356   -0.0900
     20 C20         1.7183    1.3200   46.9143 C.ar    1  ZINC000506566356   -0.1900
     21 C21         0.3740    1.4366   47.2270 C.ar    1  ZINC000506566356    0.1200
     22 O22        -0.5309    1.7164   46.2517 O.3     1  ZINC000506566356   -0.3100
     23 C23        -1.2929    0.6211   45.7401 C.3     1  ZINC000506566356    0.1400
     24 C24        -0.7935    0.2607   44.3647 C.2     1  ZINC000506566356    0.0500
     25 C25        -1.5463   -0.3836   43.4681 C.2     1  ZINC000506566356   -0.2300
     26 S26        -0.5837   -0.6019   42.0085 S.3     1  ZINC000506566356    0.1400
     27 C27         0.7352    0.1952   42.7490 C.2     1  ZINC000506566356    0.0200
     28 N28         0.4195    0.5601   43.9456 N.2     1  ZINC000506566356   -0.4700
     29 H29        -3.0949    4.2961   50.8706 H       1  ZINC000506566356    0.4200
     30 H30        -5.5081    4.8118   50.5666 H       1  ZINC000506566356    0.0800
     31 H31        -5.7363    3.0717   50.2696 H       1  ZINC000506566356    0.0800
     32 H32        -4.4090    3.2509   52.7658 H       1  ZINC000506566356    0.0900
     33 H33        -5.6671    4.5097   52.8009 H       1  ZINC000506566356    0.0900
     34 H34        -7.6678    3.8031   53.6971 H       1  ZINC000506566356    0.1300
     35 H35        -9.3878    2.0769   54.0505 H       1  ZINC000506566356    0.1300
     36 H36        -9.0883   -0.1732   53.0973 H       1  ZINC000506566356    0.1300
     37 H37        -5.3507    1.0326   51.4292 H       1  ZINC000506566356    0.1300
     38 H38        -1.9926    0.6360   48.7842 H       1  ZINC000506566356    0.4300
     39 H39         0.5583    0.8662   50.5600 H       1  ZINC000506566356    0.1500
     40 H40         2.9420    0.6513   49.9875 H       1  ZINC000506566356    0.1300
     41 H41         3.6846    0.9401   47.6606 H       1  ZINC000506566356    0.1300
     42 H42         2.0481    1.4472   45.8937 H       1  ZINC000506566356    0.1400
     43 H43        -1.1845   -0.2377   46.4026 H       1  ZINC000506566356    0.0900
     44 H44        -2.3437    0.9050   45.6822 H       1  ZINC000506566356    0.0900
     45 H45        -2.5647   -0.7126   43.6126 H       1  ZINC000506566356    0.1800
     46 H46         1.6926    0.3716   42.2811 H       1  ZINC000506566356    0.2100
@<TRIPOS>BOND
     1     1     2    2
     2     2     3   am
     3     2    13    1
     4     3     4    1
     5     3    29    1
     6     4     5    1
     7     4    30    1
     8     4    31    1
     9     5     6    1
    10     5    32    1
    11     5    33    1
    12     6    12   ar
    13     6     7   ar
    14     7     8   ar
    15     7    34    1
    16     8     9   ar
    17     8    35    1
    18     9    10   ar
    19     9    36    1
    20    10    11    1
    21    10    12   ar
    22    12    37    1
    23    13    14    2
    24    13    15   am
    25    15    16    1
    26    15    38    1
    27    16    21   ar
    28    16    17   ar
    29    17    18   ar
    30    17    39    1
    31    18    19   ar
    32    18    40    1
    33    19    20   ar
    34    19    41    1
    35    20    21   ar
    36    20    42    1
    37    21    22    1
    38    22    23    1
    39    23    24    1
    40    23    43    1
    41    23    44    1
    42    24    28    1
    43    24    25    2
    44    25    26    1
    45    25    45    1
    46    26    27    1
    47    27    28    2
    48    27    46    1
@<TRIPOS>SUBSTRUCTURE
     1 ZINC000506566356        1 TEMP              0 ****  ****    0 ROOT


##########                                Name:    ZINC001085711660
##########                DOCK_Rotatable_Bonds:                   8
##########                         Heavy_Atoms:                  25
##########                    Molecular_Weight:             347.414
##########                DOCK_Rotatable_Bonds:                   8
##########                       Formal_Charge:         -0.00999993
##########                     HBond_Acceptors:                   7
##########                        HBond_Donors:                   0
##########                         Heavy_Atoms:                  25
##########                          Grid_Score:          -38.225056
##########                     Grid_vdw_energy:          -37.513306
##########                      Grid_es_energy:           -0.711749
##########           Internal_energy_repulsive:           11.620101

@<TRIPOS>MOLECULE
ZINC001085711660
 50 52 1 0 0
SMALL
USER_CHARGES


@<TRIPOS>ATOM
      1 C1          3.1057    0.8913   44.3913 C.3     1  ZINC001085711660    0.0300
      2 O2          2.4503   -0.1259   43.6312 O.3     1  ZINC001085711660   -0.3800
      3 C3          1.4180    0.3640   42.7729 C.3     1  ZINC001085711660    0.1400
      4 C4          0.1163    0.4138   43.5304 C.2     1  ZINC001085711660    0.0100
      5 C5         -1.0839    0.0086   43.0600 C.2     1  ZINC001085711660   -0.1900
      6 C6         -2.0228    0.2271   44.0804 C.2     1  ZINC001085711660   -0.1200
      7 C7         -1.3392    0.7612   45.1349 C.2     1  ZINC001085711660   -0.0700
      8 C8         -1.9148    1.1517   46.4260 C.2     1  ZINC001085711660    0.6000
      9 O9         -2.7757    2.0106   46.4736 O.2     1  ZINC001085711660   -0.5200
     10 N10        -1.4903    0.5594   47.5598 N.am    1  ZINC001085711660   -0.6000
     11 C11        -0.4539   -0.4744   47.5026 C.3     1  ZINC001085711660    0.0700
     12 C12        -2.0653    0.9496   48.8496 C.3     1  ZINC001085711660    0.1300
     13 C13        -1.5964    2.3604   49.2110 C.3     1  ZINC001085711660    0.0000
     14 H14        -1.9471    3.1145   48.5065 H       1  ZINC001085711660    0.1000
     15 C15        -0.0918    2.4488   49.5027 C.3     1  ZINC001085711660   -0.1400
     16 C16        -0.5382    3.4155   50.6086 C.3     1  ZINC001085711660    0.0100
     17 N17        -1.8381    2.7166   50.6217 N.3     1  ZINC001085711660   -0.4500
     18 C18        -2.9479    3.6714   50.7423 C.3     1  ZINC001085711660    0.1500
     19 H19        -2.8836    4.4066   49.9402 H       1  ZINC001085711660    0.1000
     20 C20        -2.8639    4.3830   52.0943 C.3     1  ZINC001085711660   -0.1900
     21 C21        -4.2583    2.9337   50.6436 C.2     1  ZINC001085711660    0.2000
     22 N22        -5.2914    3.3124   49.9465 N.2     1  ZINC001085711660   -0.4700
     23 C23        -6.2718    2.4050   50.1009 C.2     1  ZINC001085711660   -0.0400
     24 C24        -5.8132    1.4447   50.9205 C.2     1  ZINC001085711660   -0.0500
     25 C25        -6.5668    0.2219   51.3769 C.3     1  ZINC001085711660   -0.0700
     26 O26        -4.5506    1.7775   51.2537 O.3     1  ZINC001085711660   -0.2000
     27 O27        -0.0407    0.8617   44.7828 O.3     1  ZINC001085711660   -0.1500
     28 H28         3.5651    1.6115   43.7144 H       1  ZINC001085711660    0.0500
     29 H29         2.3767    1.3997   45.0225 H       1  ZINC001085711660    0.0500
     30 H30         3.8749    0.4386   45.0169 H       1  ZINC001085711660    0.0900
     31 H31         1.6765    1.3652   42.4284 H       1  ZINC001085711660    0.0900
     32 H32         1.3137   -0.2998   41.9146 H       1  ZINC001085711660    0.0700
     33 H33        -1.2834   -0.4055   42.0826 H       1  ZINC001085711660    0.1600
     34 H34        -3.0807    0.0140   44.0394 H       1  ZINC001085711660    0.1600
     35 H35         0.5287   -0.0032   47.4832 H       1  ZINC001085711660    0.0600
     36 H36        -0.5320   -1.1160   48.3802 H       1  ZINC001085711660    0.0900
     37 H37        -0.5876   -1.0733   46.6016 H       1  ZINC001085711660    0.0800
     38 H38        -3.1531    0.9345   48.7819 H       1  ZINC001085711660    0.0900
     39 H39        -1.7393    0.2500   49.6193 H       1  ZINC001085711660    0.0900
     40 H40         0.3467    1.5213   49.8709 H       1  ZINC001085711660    0.1000
     41 H41         0.4901    2.9169   48.7087 H       1  ZINC001085711660    0.0800
     42 H42         0.0245    3.3045   51.5355 H       1  ZINC001085711660    0.0900
     43 H43        -0.6067    4.4518   50.2778 H       1  ZINC001085711660    0.0800
     44 H44        -2.8182    3.6422   52.8925 H       1  ZINC001085711660    0.0800
     45 H45        -1.9685    5.0038   52.1230 H       1  ZINC001085711660    0.0800
     46 H46        -3.7452    5.0098   52.2303 H       1  ZINC001085711660    0.0700
     47 H47        -7.2515    2.4418   49.6477 H       1  ZINC001085711660    0.1800
     48 H48        -6.3928   -0.5946   50.6761 H       1  ZINC001085711660    0.0800
     49 H49        -6.2198   -0.0698   52.3681 H       1  ZINC001085711660    0.0800
     50 H50        -7.6327    0.4460   51.4164 H       1  ZINC001085711660    0.0900
@<TRIPOS>BOND
     1     1     2    1
     2     1    28    1
     3     1    29    1
     4     1    30    1
     5     2     3    1
     6     3     4    1
     7     3    31    1
     8     3    32    1
     9     4    27    1
    10     4     5    2
    11     5     6    1
    12     5    33    1
    13     6     7    2
    14     6    34    1
    15     7     8    1
    16     7    27    1
    17     8     9    2
    18     8    10   am
    19    10    11    1
    20    10    12    1
    21    11    35    1
    22    11    36    1
    23    11    37    1
    24    12    13    1
    25    12    38    1
    26    12    39    1
    27    13    14    1
    28    13    17    1
    29    13    15    1
    30    15    16    1
    31    15    40    1
    32    15    41    1
    33    16    17    1
    34    16    42    1
    35    16    43    1
    36    17    18    1
    37    18    19    1
    38    18    20    1
    39    18    21    1
    40    20    44    1
    41    20    45    1
    42    20    46    1
    43    21    26    1
    44    21    22    2
    45    22    23    1
    46    23    24    2
    47    23    47    1
    48    24    25    1
    49    24    26    1
    50    25    48    1
    51    25    49    1
    52    25    50    1
@<TRIPOS>SUBSTRUCTURE
     1 ZINC001085711660        1 TEMP              0 ****  ****    0 ROOT


##########                                Name:    ZINC001369071670
##########                DOCK_Rotatable_Bonds:                   8
##########                         Heavy_Atoms:                  24
##########                    Molecular_Weight:             335.366
##########                DOCK_Rotatable_Bonds:                   8
##########                       Formal_Charge:        -2.90573e-07
##########                     HBond_Acceptors:                  10
##########                        HBond_Donors:                   1
##########                         Heavy_Atoms:                  24
##########                          Grid_Score:          -38.195866
##########                     Grid_vdw_energy:          -38.789455
##########                      Grid_es_energy:            0.593590
##########           Internal_energy_repulsive:            6.471470

@<TRIPOS>MOLECULE
ZINC001369071670
 45 47 1 0 0
SMALL
USER_CHARGES


@<TRIPOS>ATOM
      1 C1         -9.3645   -0.5372   53.3317 C.3     1  ZINC001369071670   -0.0800
      2 C2         -8.1290   -0.4223   52.4762 C.2     1  ZINC001369071670    0.0000
      3 C3         -7.3695    0.6826   52.2972 C.2     1  ZINC001369071670   -0.2300
      4 C4         -6.3455    0.2545   51.4125 C.2     1  ZINC001369071670    0.2100
      5 O5         -5.3243    1.0038   50.9254 O.3     1  ZINC001369071670   -0.2600
      6 C6         -5.2800    2.3761   51.3216 C.3     1  ZINC001369071670    0.0400
      7 C7         -4.1269    3.0605   50.6340 C.2     1  ZINC001369071670    0.5200
      8 O8         -4.2006    4.2383   50.3537 O.2     1  ZINC001369071670   -0.5100
      9 N9         -3.0137    2.3641   50.3306 N.am    1  ZINC001369071670   -0.7200
     10 C10        -1.8920    3.0299   49.6638 C.3     1  ZINC001369071670    0.1500
     11 H11        -2.2726    3.8076   49.0017 H       1  ZINC001369071670    0.0900
     12 C12        -0.9744    3.6587   50.7144 C.3     1  ZINC001369071670   -0.1700
     13 C13        -1.1035    2.0050   48.8459 C.3     1  ZINC001369071670   -0.1200
     14 C14        -1.8446    1.5122   47.5900 C.3     1  ZINC001369071670    0.0100
     15 N15        -0.5417    1.6247   46.8978 N.3     1  ZINC001369071670   -0.4800
     16 C16        -0.7035    2.2201   45.5647 C.3     1  ZINC001369071670    0.1000
     17 C17        -1.0220    1.1371   44.5662 C.2     1  ZINC001369071670    0.1900
     18 N18        -2.1992    0.6110   44.3313 N.2     1  ZINC001369071670   -0.3000
     19 N19        -2.0604   -0.2800   43.4111 N.2     1  ZINC001369071670   -0.0700
     20 N20        -0.8252   -0.3360   43.0530 N.2     1  ZINC001369071670   -0.0900
     21 N21        -0.1538    0.5265   43.7387 N.pl3   1  ZINC001369071670   -0.3000
     22 C22         1.2848    0.7857   43.6415 C.3     1  ZINC001369071670    0.0800
     23 C23        -0.0860    2.6351   47.8780 C.3     1  ZINC001369071670    0.0200
     24 N24        -6.5826   -1.0052   51.1616 N.2     1  ZINC001369071670   -0.4100
     25 O25        -7.5647   -1.3967   51.7484 O.3     1  ZINC001369071670    0.1000
     26 H26        -9.7511   -1.5549   53.2767 H       1  ZINC001369071670    0.0900
     27 H27        -9.1140   -0.2991   54.3654 H       1  ZINC001369071670    0.1000
     28 H28       -10.1218    0.1591   52.9716 H       1  ZINC001369071670    0.1000
     29 H29        -7.5098    1.6632   52.7276 H       1  ZINC001369071670    0.1800
     30 H30        -6.2127    2.8656   51.0409 H       1  ZINC001369071670    0.1000
     31 H31        -5.1477    2.4383   52.4017 H       1  ZINC001369071670    0.1000
     32 H32        -2.9551    1.4219   50.5538 H       1  ZINC001369071670    0.4000
     33 H33        -1.5362    4.3888   51.2970 H       1  ZINC001369071670    0.0600
     34 H34        -0.5938    2.8810   51.3765 H       1  ZINC001369071670    0.0600
     35 H35        -0.1399    4.1540   50.2183 H       1  ZINC001369071670    0.0700
     36 H36        -0.6896    1.2023   49.4563 H       1  ZINC001369071670    0.1100
     37 H37        -2.2124    0.4893   47.6700 H       1  ZINC001369071670    0.1000
     38 H38        -2.5984    2.2090   47.2231 H       1  ZINC001369071670    0.0800
     39 H39        -1.5175    2.9447   45.5867 H       1  ZINC001369071670    0.1000
     40 H40         0.2207    2.7204   45.2756 H       1  ZINC001369071670    0.0900
     41 H41         1.4649    1.5604   42.8961 H       1  ZINC001369071670    0.1000
     42 H42         1.6603    1.1183   44.6091 H       1  ZINC001369071670    0.1000
     43 H43         1.7996   -0.1288   43.3467 H       1  ZINC001369071670    0.1100
     44 H44        -0.3254    3.6603   47.5954 H       1  ZINC001369071670    0.0800
     45 H45         0.9513    2.5094   48.1882 H       1  ZINC001369071670    0.1000
@<TRIPOS>BOND
     1     1     2    1
     2     1    26    1
     3     1    27    1
     4     1    28    1
     5     2    25    1
     6     2     3    2
     7     3     4    1
     8     3    29    1
     9     4     5    1
    10     4    24    2
    11     5     6    1
    12     6     7    1
    13     6    30    1
    14     6    31    1
    15     7     8    2
    16     7     9   am
    17     9    10    1
    18     9    32    1
    19    10    11    1
    20    10    12    1
    21    10    13    1
    22    12    33    1
    23    12    34    1
    24    12    35    1
    25    13    23    1
    26    13    14    1
    27    13    36    1
    28    14    15    1
    29    14    37    1
    30    14    38    1
    31    15    16    1
    32    15    23    1
    33    16    17    1
    34    16    39    1
    35    16    40    1
    36    17    21    1
    37    17    18    2
    38    18    19    1
    39    19    20    2
    40    20    21    1
    41    21    22    1
    42    22    41    1
    43    22    42    1
    44    22    43    1
    45    23    44    1
    46    23    45    1
    47    24    25    1
@<TRIPOS>SUBSTRUCTURE
     1 ZINC001369071670        1 TEMP              0 ****  ****    0 ROOT


##########                                Name:    ZINC001169875900
##########                DOCK_Rotatable_Bonds:                   9
##########                         Heavy_Atoms:                  24
##########                    Molecular_Weight:             329.399
##########                DOCK_Rotatable_Bonds:                   9
##########                       Formal_Charge:          -0.0500002
##########                     HBond_Acceptors:                   6
##########                        HBond_Donors:                   1
##########                         Heavy_Atoms:                  24
##########                          Grid_Score:          -38.107971
##########                     Grid_vdw_energy:          -37.281609
##########                      Grid_es_energy:           -0.826361
##########           Internal_energy_repulsive:            8.277336

@<TRIPOS>MOLECULE
ZINC001169875900
 47 48 1 0 0
SMALL
USER_CHARGES


@<TRIPOS>ATOM
      1 C1          0.9933    0.5457   43.0732 C.3     1  ZINC001169875900   -0.1500
      2 C2         -0.4615    0.0780   42.9981 C.3     1  ZINC001169875900   -0.1300
      3 C3         -1.2357    0.6248   44.1991 C.3     1  ZINC001169875900    0.0700
      4 O4         -0.6734    0.1046   45.4053 O.3     1  ZINC001169875900   -0.3100
      5 C5         -1.2882    0.4424   46.5679 C.ar    1  ZINC001169875900    0.2700
      6 N6         -2.1988    1.4007   46.5706 N.ar    1  ZINC001169875900   -0.5000
      7 C7         -2.8175    1.7668   47.6773 C.ar    1  ZINC001169875900    0.0600
      8 C8         -2.5344    1.1477   48.8854 C.ar    1  ZINC001169875900    0.1400
      9 N9         -3.1942    1.5414   50.0556 N.pl3   1  ZINC001169875900   -0.7400
     10 C10        -4.4606    2.2730   49.9715 C.3     1  ZINC001169875900    0.1800
     11 C11        -5.2590    2.0413   51.2285 C.ar    1  ZINC001169875900    0.1000
     12 C12        -5.1344    2.9239   52.2896 C.ar    1  ZINC001169875900   -0.1200
     13 C13        -5.8706    2.7071   53.4441 C.ar    1  ZINC001169875900   -0.0800
     14 C14        -6.7111    1.6064   53.4950 C.ar    1  ZINC001169875900   -0.1000
     15 C15        -6.7865    0.7606   52.3902 C.ar    1  ZINC001169875900    0.0900
     16 C16        -7.6797   -0.4198   52.4287 C.2     1  ZINC001169875900    0.5200
     17 O17        -7.4262   -1.3953   51.7515 O.2     1  ZINC001169875900   -0.5000
     18 O18        -8.7731   -0.4115   53.2148 O.3     1  ZINC001169875900   -0.3300
     19 C19        -9.7426    0.6446   52.9846 C.3     1  ZINC001169875900    0.0600
     20 C20       -10.9500    0.4372   53.9011 C.3     1  ZINC001169875900   -0.1500
     21 N21        -6.0682    1.0073   51.3015 N.ar    1  ZINC001169875900   -0.4200
     22 C22        -1.5840    0.1288   48.9197 C.ar    1  ZINC001169875900   -0.1200
     23 C23        -0.9568   -0.2267   47.7389 C.ar    1  ZINC001169875900   -0.1000
     24 C24         0.0777   -1.3224   47.7247 C.3     1  ZINC001169875900   -0.1000
     25 H25         1.4457    0.1791   43.9947 H       1  ZINC001169875900    0.0600
     26 H26         1.5449    0.1561   42.2177 H       1  ZINC001169875900    0.0600
     27 H27         1.0258    1.6351   43.0610 H       1  ZINC001169875900    0.0600
     28 H28        -0.4939   -1.0115   43.0103 H       1  ZINC001169875900    0.0700
     29 H29        -0.9138    0.4446   42.0766 H       1  ZINC001169875900    0.0700
     30 H30        -2.2806    0.3230   44.1257 H       1  ZINC001169875900    0.0600
     31 H31        -1.1715    1.7129   44.2079 H       1  ZINC001169875900    0.0600
     32 H32        -3.5523    2.5576   47.6417 H       1  ZINC001169875900    0.1500
     33 H33        -2.8129    1.3298   50.9219 H       1  ZINC001169875900    0.4000
     34 H34        -4.2583    3.3383   49.8608 H       1  ZINC001169875900    0.0800
     35 H35        -5.0280    1.9197   49.1105 H       1  ZINC001169875900    0.0800
     36 H36        -4.4700    3.7724   52.2179 H       1  ZINC001169875900    0.1500
     37 H37        -5.7912    3.3808   54.2844 H       1  ZINC001169875900    0.1500
     38 H38        -7.2991    1.4067   54.3787 H       1  ZINC001169875900    0.1500
     39 H39        -9.2854    1.6105   53.1990 H       1  ZINC001169875900    0.0700
     40 H40       -10.0673    0.6192   51.9445 H       1  ZINC001169875900    0.0700
     41 H41       -11.4072   -0.5288   53.6867 H       1  ZINC001169875900    0.0700
     42 H42       -10.6252    0.4626   54.9413 H       1  ZINC001169875900    0.0700
     43 H43       -11.6778    1.2300   53.7282 H       1  ZINC001169875900    0.0800
     44 H44        -1.3427   -0.3712   49.8460 H       1  ZINC001169875900    0.1400
     45 H45        -0.4093   -2.2797   47.5387 H       1  ZINC001169875900    0.0700
     46 H46         0.5861   -1.3546   48.6883 H       1  ZINC001169875900    0.0700
     47 H47         0.8047   -1.1255   46.9367 H       1  ZINC001169875900    0.0700
@<TRIPOS>BOND
     1     1     2    1
     2     1    25    1
     3     1    26    1
     4     1    27    1
     5     2     3    1
     6     2    28    1
     7     2    29    1
     8     3     4    1
     9     3    30    1
    10     3    31    1
    11     4     5    1
    12     5    23   ar
    13     5     6   ar
    14     6     7   ar
    15     7     8   ar
    16     7    32    1
    17     8     9    1
    18     8    22   ar
    19     9    10    1
    20     9    33    1
    21    10    11    1
    22    10    34    1
    23    10    35    1
    24    11    21   ar
    25    11    12   ar
    26    12    13   ar
    27    12    36    1
    28    13    14   ar
    29    13    37    1
    30    14    15   ar
    31    14    38    1
    32    15    16    1
    33    15    21   ar
    34    16    17    2
    35    16    18    1
    36    18    19    1
    37    19    20    1
    38    19    39    1
    39    19    40    1
    40    20    41    1
    41    20    42    1
    42    20    43    1
    43    22    23   ar
    44    22    44    1
    45    23    24    1
    46    24    45    1
    47    24    46    1
    48    24    47    1
@<TRIPOS>SUBSTRUCTURE
     1 ZINC001169875900        1 TEMP              0 ****  ****    0 ROOT


##########                                Name:    ZINC000013809319
##########                DOCK_Rotatable_Bonds:                  10
##########                         Heavy_Atoms:                  30
##########                    Molecular_Weight:             407.469
##########                DOCK_Rotatable_Bonds:                  10
##########                       Formal_Charge:         -0.00999978
##########                     HBond_Acceptors:                   7
##########                        HBond_Donors:                   1
##########                         Heavy_Atoms:                  30
##########                          Grid_Score:          -38.066074
##########                     Grid_vdw_energy:          -36.881905
##########                      Grid_es_energy:           -1.184169
##########           Internal_energy_repulsive:           15.411887

@<TRIPOS>MOLECULE
ZINC000013809319
 55 57 1 0 0
SMALL
USER_CHARGES


@<TRIPOS>ATOM
      1 C1        -12.1978   -3.2258   57.7170 C.3     1  ZINC000013809319   -0.1500
      2 C2        -11.4736   -2.6428   56.5017 C.3     1  ZINC000013809319    0.0500
      3 O3        -11.0299   -1.3181   56.8019 O.3     1  ZINC000013809319   -0.3100
      4 C4        -10.2619   -0.6990   55.8687 C.ar    1  ZINC000013809319    0.1500
      5 C5         -9.1620    0.0521   56.2639 C.ar    1  ZINC000013809319   -0.2200
      6 C6         -8.3802    0.6813   55.3197 C.ar    1  ZINC000013809319   -0.0300
      7 C7         -8.6944    0.5634   53.9649 C.ar    1  ZINC000013809319   -0.1100
      8 C8         -7.8568    1.2374   52.9477 C.2     1  ZINC000013809319    0.2300
      9 C9         -7.0472    0.4927   52.1054 C.2     1  ZINC000013809319   -0.2900
     10 C10        -6.2683    1.1731   51.1534 C.2     1  ZINC000013809319    0.5300
     11 O11        -5.5410    0.5581   50.3905 O.2     1  ZINC000013809319   -0.5400
     12 N12        -6.3408    2.5195   51.0993 N.am    1  ZINC000013809319   -0.5100
     13 C13        -5.5400    3.2536   50.1165 C.3     1  ZINC000013809319    0.0700
     14 C14        -4.1144    3.3440   50.5968 C.2     1  ZINC000013809319    0.5000
     15 O15        -3.8664    3.8590   51.6664 O.2     1  ZINC000013809319   -0.5200
     16 N16        -3.1152    2.8525   49.8375 N.am    1  ZINC000013809319   -0.7200
     17 C17        -1.7295    2.9387   50.3052 C.3     1  ZINC000013809319    0.1300
     18 C18        -0.7804    2.8360   49.1095 C.3     1  ZINC000013809319   -0.0800
     19 C19        -0.8488    1.4457   48.5320 C.ar    1  ZINC000013809319   -0.1200
     20 C20        -0.5365    0.3543   49.3188 C.ar    1  ZINC000013809319   -0.0800
     21 C21        -0.5984   -0.9217   48.7892 C.ar    1  ZINC000013809319   -0.1500
     22 C22        -0.9735   -1.1083   47.4718 C.ar    1  ZINC000013809319   -0.0800
     23 C23        -1.2873   -0.0199   46.6806 C.ar    1  ZINC000013809319   -0.2100
     24 C24        -1.2309    1.2607   47.2110 C.ar    1  ZINC000013809319    0.1300
     25 O25        -1.5391    2.3329   46.4351 O.3     1  ZINC000013809319   -0.3100
     26 C26        -1.8670    2.0721   45.0688 C.3     1  ZINC000013809319    0.0300
     27 C27        -7.1469    3.1923   51.9450 C.2     1  ZINC000013809319    0.3900
     28 N28        -7.8800    2.5766   52.8306 N.2     1  ZINC000013809319   -0.5300
     29 C29        -9.8003   -0.1921   53.5714 C.ar    1  ZINC000013809319   -0.0500
     30 C30       -10.5745   -0.8229   54.5207 C.ar    1  ZINC000013809319   -0.1600
     31 H31       -11.5158   -3.2549   58.5668 H       1  ZINC000013809319    0.0700
     32 H32       -13.0570   -2.6015   57.9619 H       1  ZINC000013809319    0.0700
     33 H33       -12.5363   -4.2362   57.4880 H       1  ZINC000013809319    0.0800
     34 H34       -10.6144   -3.2672   56.2569 H       1  ZINC000013809319    0.0600
     35 H35       -12.1556   -2.6138   55.6519 H       1  ZINC000013809319    0.0600
     36 H36        -8.9196    0.1432   57.3125 H       1  ZINC000013809319    0.1300
     37 H37        -7.5255    1.2654   55.6276 H       1  ZINC000013809319    0.1400
     38 H38        -7.0151   -0.5844   52.1787 H       1  ZINC000013809319    0.1600
     39 H39        -5.5689    2.7305   49.1607 H       1  ZINC000013809319    0.1300
     40 H40        -5.9464    4.2576   49.9937 H       1  ZINC000013809319    0.1300
     41 H41        -3.3135    2.4417   48.9814 H       1  ZINC000013809319    0.4000
     42 H42        -1.5753    3.8920   50.8106 H       1  ZINC000013809319    0.0700
     43 H43        -1.5289    2.1226   50.9994 H       1  ZINC000013809319    0.0700
     44 H44        -1.0738    3.5600   48.3494 H       1  ZINC000013809319    0.0800
     45 H45         0.2387    3.0443   49.4355 H       1  ZINC000013809319    0.0800
     46 H46        -0.2432    0.4975   50.3482 H       1  ZINC000013809319    0.1300
     47 H47        -0.3532   -1.7738   49.4058 H       1  ZINC000013809319    0.1300
     48 H48        -1.0208   -2.1058   47.0603 H       1  ZINC000013809319    0.1300
     49 H49        -1.5799   -0.1662   45.6514 H       1  ZINC000013809319    0.1300
     50 H50        -2.7372    1.4174   45.0225 H       1  ZINC000013809319    0.0600
     51 H51        -2.0917    3.0114   44.5635 H       1  ZINC000013809319    0.1000
     52 H52        -1.0221    1.5888   44.5783 H       1  ZINC000013809319    0.0600
     53 H53        -7.1897    4.2698   51.8849 H       1  ZINC000013809319    0.2000
     54 H54       -10.0462   -0.2855   52.5240 H       1  ZINC000013809319    0.1400
     55 H55       -11.4301   -1.4079   54.2171 H       1  ZINC000013809319    0.1400
@<TRIPOS>BOND
     1     1     2    1
     2     1    31    1
     3     1    32    1
     4     1    33    1
     5     2     3    1
     6     2    34    1
     7     2    35    1
     8     3     4    1
     9     4    30   ar
    10     4     5   ar
    11     5     6   ar
    12     5    36    1
    13     6     7   ar
    14     6    37    1
    15     7     8    1
    16     7    29   ar
    17     8    28    1
    18     8     9    2
    19     9    10    1
    20     9    38    1
    21    10    11    2
    22    10    12   am
    23    12    13    1
    24    12    27    1
    25    13    14    1
    26    13    39    1
    27    13    40    1
    28    14    15    2
    29    14    16   am
    30    16    17    1
    31    16    41    1
    32    17    18    1
    33    17    42    1
    34    17    43    1
    35    18    19    1
    36    18    44    1
    37    18    45    1
    38    19    24   ar
    39    19    20   ar
    40    20    21   ar
    41    20    46    1
    42    21    22   ar
    43    21    47    1
    44    22    23   ar
    45    22    48    1
    46    23    24   ar
    47    23    49    1
    48    24    25    1
    49    25    26    1
    50    26    50    1
    51    26    51    1
    52    26    52    1
    53    27    28    2
    54    27    53    1
    55    29    30   ar
    56    29    54    1
    57    30    55    1
@<TRIPOS>SUBSTRUCTURE
     1 ZINC000013809319        1 TEMP              0 ****  ****    0 ROOT


##########                                Name:    ZINC001109082135
##########                DOCK_Rotatable_Bonds:                   9
##########                         Heavy_Atoms:                  27
##########                    Molecular_Weight:             373.455
##########                DOCK_Rotatable_Bonds:                   9
##########                       Formal_Charge:          -0.0100003
##########                     HBond_Acceptors:                   8
##########                        HBond_Donors:                   3
##########                         Heavy_Atoms:                  27
##########                          Grid_Score:          -37.994522
##########                     Grid_vdw_energy:          -34.783104
##########                      Grid_es_energy:           -3.211418
##########           Internal_energy_repulsive:           17.427227

@<TRIPOS>MOLECULE
ZINC001109082135
 54 57 1 0 0
SMALL
USER_CHARGES


@<TRIPOS>ATOM
      1 C1        -13.8086   -0.0976   49.6895 C.3     1  ZINC001109082135   -0.1400
      2 C2        -13.3045    1.2242   49.1069 C.3     1  ZINC001109082135   -0.1400
      3 C3        -12.5402    1.9797   50.1634 C.2     1  ZINC001109082135    0.5100
      4 O4        -12.8113    1.8249   51.3353 O.2     1  ZINC001109082135   -0.5400
      5 N5        -11.5552    2.8273   49.8059 N.am    1  ZINC001109082135   -0.7200
      6 C6        -10.8133    3.5631   50.8328 C.3     1  ZINC001109082135    0.1000
      7 C7         -9.3818    3.7330   50.3935 C.2     1  ZINC001109082135    0.5100
      8 O8         -9.1061    4.5254   49.5177 O.2     1  ZINC001109082135   -0.5300
      9 N9         -8.4078    3.0042   50.9739 N.am    1  ZINC001109082135   -0.7100
     10 C10        -7.0160    3.1707   50.5480 C.3     1  ZINC001109082135    0.1100
     11 H11        -6.9468    3.1761   49.4602 H       1  ZINC001109082135    0.0900
     12 C12        -6.4170    4.4705   51.1388 C.3     1  ZINC001109082135   -0.1600
     13 C13        -5.2383    3.9601   52.0216 C.3     1  ZINC001109082135    0.0600
     14 H14        -4.4655    4.6954   52.2458 H       1  ZINC001109082135    0.1300
     15 C15        -5.9170    3.2984   53.2587 C.3     1  ZINC001109082135   -0.1200
     16 C16        -6.5282    1.9973   52.6835 C.3     1  ZINC001109082135   -0.1100
     17 C17        -6.1201    2.0461   51.1492 C.3     1  ZINC001109082135    0.0400
     18 H18        -6.1278    1.0880   50.6295 H       1  ZINC001109082135    0.1200
     19 N19        -4.7911    2.7548   51.2362 N.3     1  ZINC001109082135   -0.4800
     20 C20        -4.3061    3.1296   49.9013 C.3     1  ZINC001109082135    0.0800
     21 C21        -2.8753    2.6833   49.7431 C.2     1  ZINC001109082135    0.2000
     22 C22        -1.8575    3.5383   50.0396 C.2     1  ZINC001109082135   -0.2900
     23 C23        -0.5304    3.0886   49.8810 C.2     1  ZINC001109082135    0.5200
     24 O24         0.4105    3.8220   50.1356 O.2     1  ZINC001109082135   -0.5400
     25 N25        -0.3234    1.8288   49.4417 N.am    1  ZINC001109082135   -0.6300
     26 C26        -1.3745    1.0321   49.1656 C.2     1  ZINC001109082135    0.4300
     27 C27        -1.1262   -0.3715   48.6762 C.3     1  ZINC001109082135   -0.1400
     28 C28        -0.9140   -0.5685   47.1738 C.3     1  ZINC001109082135   -0.1400
     29 C29         0.2684   -0.6950   48.1366 C.3     1  ZINC001109082135   -0.1400
     30 N30        -2.6038    1.4471   49.3174 N.2     1  ZINC001109082135   -0.5300
     31 H31       -14.4637    0.1050   50.5368 H       1  ZINC001109082135    0.0600
     32 H32       -14.3614   -0.6441   48.9254 H       1  ZINC001109082135    0.0600
     33 H33       -12.9599   -0.6956   50.0213 H       1  ZINC001109082135    0.0600
     34 H34       -12.6494    1.0215   48.2596 H       1  ZINC001109082135    0.1000
     35 H35       -14.1533    1.8222   48.7751 H       1  ZINC001109082135    0.1000
     36 H36       -11.3375    2.9502   48.8686 H       1  ZINC001109082135    0.4100
     37 H37       -11.2678    4.5433   50.9771 H       1  ZINC001109082135    0.1000
     38 H38       -10.8423    3.0076   51.7701 H       1  ZINC001109082135    0.1000
     39 H39        -8.6285    2.3696   51.6735 H       1  ZINC001109082135    0.4000
     40 H40        -6.0483    5.1190   50.3441 H       1  ZINC001109082135    0.0800
     41 H41        -7.1556    4.9909   51.7485 H       1  ZINC001109082135    0.0800
     42 H42        -5.1767    3.0685   54.0251 H       1  ZINC001109082135    0.0700
     43 H43        -6.6978    3.9447   53.6595 H       1  ZINC001109082135    0.0700
     44 H44        -6.0910    1.1225   53.1649 H       1  ZINC001109082135    0.0700
     45 H45        -7.6121    1.9987   52.7992 H       1  ZINC001109082135    0.0700
     46 H46        -4.9227    2.6482   49.1422 H       1  ZINC001109082135    0.1000
     47 H47        -4.3641    4.2117   49.7841 H       1  ZINC001109082135    0.0700
     48 H48        -2.0624    4.5397   50.3884 H       1  ZINC001109082135    0.1600
     49 H49         0.5809    1.4976   49.3247 H       1  ZINC001109082135    0.4200
     50 H50        -1.6511   -1.1581   49.2181 H       1  ZINC001109082135    0.1300
     51 H51        -1.2995   -1.4850   46.7271 H       1  ZINC001109082135    0.1100
     52 H52        -0.9541    0.3169   46.5395 H       1  ZINC001109082135    0.1100
     53 H53         1.0064    0.1072   48.1355 H       1  ZINC001109082135    0.1100
     54 H54         0.6608   -1.6947   48.3231 H       1  ZINC001109082135    0.1100
@<TRIPOS>BOND
     1     1     2    1
     2     1    31    1
     3     1    32    1
     4     1    33    1
     5     2     3    1
     6     2    34    1
     7     2    35    1
     8     3     4    2
     9     3     5   am
    10     5     6    1
    11     5    36    1
    12     6     7    1
    13     6    37    1
    14     6    38    1
    15     7     8    2
    16     7     9   am
    17     9    10    1
    18     9    39    1
    19    10    11    1
    20    10    17    1
    21    10    12    1
    22    12    13    1
    23    12    40    1
    24    12    41    1
    25    13    14    1
    26    13    19    1
    27    13    15    1
    28    15    16    1
    29    15    42    1
    30    15    43    1
    31    16    17    1
    32    16    44    1
    33    16    45    1
    34    17    18    1
    35    17    19    1
    36    19    20    1
    37    20    21    1
    38    20    46    1
    39    20    47    1
    40    21    30    1
    41    21    22    2
    42    22    23    1
    43    22    48    1
    44    23    24    2
    45    23    25   am
    46    25    26    1
    47    25    49    1
    48    26    27    1
    49    26    30    2
    50    27    29    1
    51    27    28    1
    52    27    50    1
    53    28    29    1
    54    28    51    1
    55    28    52    1
    56    29    53    1
    57    29    54    1
@<TRIPOS>SUBSTRUCTURE
     1 ZINC001109082135        1 TEMP              0 ****  ****    0 ROOT


##########                                Name:    ZINC000772422035
##########                DOCK_Rotatable_Bonds:                  10
##########                         Heavy_Atoms:                  25
##########                    Molecular_Weight:             348.399
##########                DOCK_Rotatable_Bonds:                  10
##########                       Formal_Charge:          0.00999987
##########                     HBond_Acceptors:                   7
##########                        HBond_Donors:                   0
##########                         Heavy_Atoms:                  25
##########                          Grid_Score:          -37.976303
##########                     Grid_vdw_energy:          -38.139828
##########                      Grid_es_energy:            0.163523
##########           Internal_energy_repulsive:           17.104359

@<TRIPOS>MOLECULE
ZINC000772422035
 49 50 1 0 0
SMALL
USER_CHARGES


@<TRIPOS>ATOM
      1 C1         -6.9237    0.5188   51.3622 C.3     1  ZINC000772422035    0.0300
      2 O2         -5.7794    1.1553   51.9344 O.3     1  ZINC000772422035   -0.3900
      3 C3         -5.5359    2.4718   51.4348 C.3     1  ZINC000772422035    0.0600
      4 C4         -5.2869    2.4070   49.9267 C.3     1  ZINC000772422035    0.0700
      5 O5         -4.2088    1.5078   49.6600 O.3     1  ZINC000772422035   -0.3000
      6 C6         -2.9506    1.9935   49.8081 C.ar    1  ZINC000772422035    0.3300
      7 C7         -1.8622    1.1500   49.6276 C.ar    1  ZINC000772422035   -0.1700
      8 C8         -0.5838    1.6579   49.7815 C.ar    1  ZINC000772422035   -0.0200
      9 C9          0.6237    0.7760   49.5939 C.3     1  ZINC000772422035    0.1100
     10 O10         1.2298    1.0533   48.3039 O.3     1  ZINC000772422035   -0.3500
     11 C11         1.0289    0.1518   47.3298 C.2     1  ZINC000772422035    0.4700
     12 O12         1.6899   -0.8591   47.2966 O.2     1  ZINC000772422035   -0.5000
     13 C13        -0.0211    0.4006   46.2779 C.3     1  ZINC000772422035   -0.1100
     14 C14         0.5888    1.2067   45.1293 C.3     1  ZINC000772422035    0.0000
     15 H15         1.6740    1.2199   45.2308 H       1  ZINC000772422035    0.1000
     16 C16         0.0550    2.6399   45.1723 C.3     1  ZINC000772422035   -0.1500
     17 C17         0.2149    0.5707   43.8152 C.2     1  ZINC000772422035   -0.2000
     18 C18         1.0181    0.3111   42.7558 C.2     1  ZINC000772422035   -0.0200
     19 C19         2.4922    0.6047   42.6479 C.3     1  ZINC000772422035   -0.0800
     20 O20         0.2428   -0.2584   41.8224 O.3     1  ZINC000772422035    0.1000
     21 N21        -0.9015   -0.3636   42.1987 N.2     1  ZINC000772422035   -0.3600
     22 C22        -1.0540    0.1011   43.4052 C.2     1  ZINC000772422035    0.0300
     23 C23        -2.3319    0.1399   44.2029 C.3     1  ZINC000772422035   -0.0800
     24 C24        -0.4393    2.9981   50.1123 C.ar    1  ZINC000772422035   -0.1900
     25 C25        -1.5666    3.7786   50.2766 C.ar    1  ZINC000772422035    0.1400
     26 N26        -2.7723    3.2671   50.1177 N.ar    1  ZINC000772422035   -0.5300
     27 H27        -7.0399   -0.4757   51.7931 H       1  ZINC000772422035    0.0900
     28 H28        -7.8131    1.1125   51.5732 H       1  ZINC000772422035    0.0400
     29 H29        -6.7909    0.4341   50.2835 H       1  ZINC000772422035    0.0400
     30 H30        -6.4029    3.1018   51.6332 H       1  ZINC000772422035    0.0600
     31 H31        -4.6604    2.8921   51.9299 H       1  ZINC000772422035    0.0700
     32 H32        -6.1875    2.0534   49.4246 H       1  ZINC000772422035    0.0800
     33 H33        -5.0314    3.4003   49.5576 H       1  ZINC000772422035    0.0800
     34 H34        -2.0112    0.1116   49.3709 H       1  ZINC000772422035    0.1400
     35 H35         1.3461    0.9759   50.3852 H       1  ZINC000772422035    0.0900
     36 H36         0.3196   -0.2699   49.6352 H       1  ZINC000772422035    0.0900
     37 H37        -0.3879   -0.5529   45.8979 H       1  ZINC000772422035    0.1100
     38 H38        -0.8482    0.9598   46.7151 H       1  ZINC000772422035    0.1100
     39 H39        -1.0344    2.6212   45.1989 H       1  ZINC000772422035    0.0600
     40 H40         0.4316    3.1412   46.0639 H       1  ZINC000772422035    0.0800
     41 H41         0.3877    3.1783   44.2849 H       1  ZINC000772422035    0.0600
     42 H42         3.0590   -0.2119   43.0951 H       1  ZINC000772422035    0.0900
     43 H43         2.7668    0.7052   41.5979 H       1  ZINC000772422035    0.0900
     44 H44         2.7172    1.5332   43.1727 H       1  ZINC000772422035    0.0900
     45 H45        -2.3900   -0.7431   44.8391 H       1  ZINC000772422035    0.0800
     46 H46        -2.3462    1.0362   44.8230 H       1  ZINC000772422035    0.0800
     47 H47        -3.1842    0.1547   43.5233 H       1  ZINC000772422035    0.0800
     48 H48         0.5441    3.4258   50.2401 H       1  ZINC000772422035    0.1400
     49 H49        -1.4596    4.8221   50.5338 H       1  ZINC000772422035    0.1700
@<TRIPOS>BOND
     1     1     2    1
     2     1    27    1
     3     1    28    1
     4     1    29    1
     5     2     3    1
     6     3     4    1
     7     3    30    1
     8     3    31    1
     9     4     5    1
    10     4    32    1
    11     4    33    1
    12     5     6    1
    13     6    26   ar
    14     6     7   ar
    15     7     8   ar
    16     7    34    1
    17     8     9    1
    18     8    24   ar
    19     9    10    1
    20     9    35    1
    21     9    36    1
    22    10    11    1
    23    11    12    2
    24    11    13    1
    25    13    14    1
    26    13    37    1
    27    13    38    1
    28    14    15    1
    29    14    16    1
    30    14    17    1
    31    16    39    1
    32    16    40    1
    33    16    41    1
    34    17    22    1
    35    17    18    2
    36    18    19    1
    37    18    20    1
    38    19    42    1
    39    19    43    1
    40    19    44    1
    41    20    21    1
    42    21    22    2
    43    22    23    1
    44    23    45    1
    45    23    46    1
    46    23    47    1
    47    24    25   ar
    48    24    48    1
    49    25    26   ar
    50    25    49    1
@<TRIPOS>SUBSTRUCTURE
     1 ZINC000772422035        1 TEMP              0 ****  ****    0 ROOT


##########                                Name:    ZINC000050607728
##########                DOCK_Rotatable_Bonds:                  10
##########                         Heavy_Atoms:                  31
##########                    Molecular_Weight:             416.476
##########                DOCK_Rotatable_Bonds:                  10
##########                       Formal_Charge:          -0.0199995
##########                     HBond_Acceptors:                   6
##########                        HBond_Donors:                   1
##########                         Heavy_Atoms:                  31
##########                          Grid_Score:          -37.960381
##########                     Grid_vdw_energy:          -36.820278
##########                      Grid_es_energy:           -1.140103
##########           Internal_energy_repulsive:           36.592945

@<TRIPOS>MOLECULE
ZINC000050607728
 55 57 1 0 0
SMALL
USER_CHARGES


@<TRIPOS>ATOM
      1 C1          1.1100    0.6783   44.2329 C.3     1  ZINC000050607728    0.0800
      2 N2         -0.2752    0.4271   43.8274 N.am    1  ZINC000050607728   -0.6200
      3 C3         -0.5562   -0.2332   42.5502 C.3     1  ZINC000050607728    0.0700
      4 C4         -1.2910    0.8035   44.6292 C.2     1  ZINC000050607728    0.5600
      5 O5         -2.4402    0.5951   44.2927 O.2     1  ZINC000050607728   -0.5300
      6 C6         -1.0074    1.4699   45.9181 C.ar    1  ZINC000050607728   -0.1400
      7 C7         -0.2651    2.6513   45.9479 C.ar    1  ZINC000050607728   -0.0800
      8 C8         -0.0044    3.2685   47.1541 C.ar    1  ZINC000050607728   -0.1300
      9 C9         -0.4766    2.7184   48.3323 C.ar    1  ZINC000050607728   -0.0700
     10 C10        -1.2127    1.5468   48.3098 C.ar    1  ZINC000050607728   -0.1100
     11 C11        -1.7227    0.9544   49.5983 C.3     1  ZINC000050607728    0.1100
     12 O12        -2.3622    1.9914   50.3881 O.3     1  ZINC000050607728   -0.3400
     13 C13        -3.4661    2.5558   49.8737 C.2     1  ZINC000050607728    0.4700
     14 O14        -3.9965    2.0701   48.9028 O.2     1  ZINC000050607728   -0.5000
     15 C15        -4.0439    3.7952   50.5070 C.3     1  ZINC000050607728    0.2000
     16 H16        -3.9744    4.6274   49.8065 H       1  ZINC000050607728    0.1400
     17 N17        -5.4491    3.5597   50.8478 N.am    1  ZINC000050607728   -0.7100
     18 C18        -5.8105    2.4177   51.4654 C.2     1  ZINC000050607728    0.5700
     19 O19        -4.9704    1.5837   51.7412 O.2     1  ZINC000050607728   -0.5200
     20 C20        -7.2289    2.1793   51.8078 C.ar    1  ZINC000050607728   -0.1400
     21 C21        -7.6090    0.9903   52.4323 C.ar    1  ZINC000050607728   -0.0800
     22 C22        -8.9342    0.7744   52.7494 C.ar    1  ZINC000050607728   -0.1300
     23 C23        -9.8856    1.7331   52.4495 C.ar    1  ZINC000050607728   -0.0900
     24 C24        -9.5155    2.9137   51.8301 C.ar    1  ZINC000050607728   -0.1300
     25 C25        -8.1929    3.1448   51.5132 C.ar    1  ZINC000050607728   -0.0600
     26 C26        -3.2722    4.1262   51.7584 C.ar    1  ZINC000050607728   -0.1000
     27 C27        -3.9247    4.1945   52.9750 C.ar    1  ZINC000050607728   -0.1000
     28 C28        -3.2168    4.4981   54.1230 C.ar    1  ZINC000050607728   -0.1200
     29 C29        -1.8564    4.7332   54.0541 C.ar    1  ZINC000050607728   -0.1100
     30 C30        -1.2037    4.6642   52.8375 C.ar    1  ZINC000050607728   -0.1200
     31 C31        -1.9107    4.3562   51.6903 C.ar    1  ZINC000050607728   -0.0800
     32 C32        -1.4857    0.9232   47.1102 C.ar    1  ZINC000050607728   -0.0400
     33 H33         1.4242    1.6558   43.8669 H       1  ZINC000050607728    0.0600
     34 H34         1.1795    0.6582   45.3206 H       1  ZINC000050607728    0.0800
     35 H35         1.7569   -0.0919   43.8132 H       1  ZINC000050607728    0.0700
     36 H36        -0.5125   -1.3142   42.6827 H       1  ZINC000050607728    0.0600
     37 H37        -1.5505    0.0507   42.2053 H       1  ZINC000050607728    0.0800
     38 H38         0.1854    0.0727   41.8121 H       1  ZINC000050607728    0.0700
     39 H39         0.1046    3.0815   45.0288 H       1  ZINC000050607728    0.1400
     40 H40         0.5699    4.1829   47.1786 H       1  ZINC000050607728    0.1400
     41 H41        -0.2694    3.2051   49.2738 H       1  ZINC000050607728    0.1300
     42 H42        -2.4453    0.1692   49.3763 H       1  ZINC000050607728    0.0900
     43 H43        -0.8887    0.5327   50.1593 H       1  ZINC000050607728    0.0900
     44 H44        -6.1194    4.2258   50.6288 H       1  ZINC000050607728    0.4100
     45 H45        -6.8675    0.2408   52.6662 H       1  ZINC000050607728    0.1300
     46 H46        -9.2297   -0.1452   53.2326 H       1  ZINC000050607728    0.1300
     47 H47       -10.9217    1.5591   52.6996 H       1  ZINC000050607728    0.1300
     48 H48       -10.2631    3.6579   51.5984 H       1  ZINC000050607728    0.1300
     49 H49        -7.9053    4.0669   51.0300 H       1  ZINC000050607728    0.1400
     50 H50        -4.9876    4.0107   53.0288 H       1  ZINC000050607728    0.1200
     51 H51        -3.7268    4.5521   55.0735 H       1  ZINC000050607728    0.1200
     52 H52        -1.3035    4.9712   54.9508 H       1  ZINC000050607728    0.1200
     53 H53        -0.1407    4.8481   52.7837 H       1  ZINC000050607728    0.1300
     54 H54        -1.4008    4.3023   50.7399 H       1  ZINC000050607728    0.1300
     55 H55        -2.0607    0.0091   47.0939 H       1  ZINC000050607728    0.1300
@<TRIPOS>BOND
     1     1     2    1
     2     1    33    1
     3     1    34    1
     4     1    35    1
     5     2     3    1
     6     2     4   am
     7     3    36    1
     8     3    37    1
     9     3    38    1
    10     4     5    2
    11     4     6    1
    12     6    32   ar
    13     6     7   ar
    14     7     8   ar
    15     7    39    1
    16     8     9   ar
    17     8    40    1
    18     9    10   ar
    19     9    41    1
    20    10    11    1
    21    10    32   ar
    22    11    12    1
    23    11    42    1
    24    11    43    1
    25    12    13    1
    26    13    14    2
    27    13    15    1
    28    15    16    1
    29    15    17    1
    30    15    26    1
    31    17    18   am
    32    17    44    1
    33    18    19    2
    34    18    20    1
    35    20    25   ar
    36    20    21   ar
    37    21    22   ar
    38    21    45    1
    39    22    23   ar
    40    22    46    1
    41    23    24   ar
    42    23    47    1
    43    24    25   ar
    44    24    48    1
    45    25    49    1
    46    26    31   ar
    47    26    27   ar
    48    27    28   ar
    49    27    50    1
    50    28    29   ar
    51    28    51    1
    52    29    30   ar
    53    29    52    1
    54    30    31   ar
    55    30    53    1
    56    31    54    1
    57    32    55    1
@<TRIPOS>SUBSTRUCTURE
     1 ZINC000050607728        1 TEMP              0 ****  ****    0 ROOT


##########                                Name:    ZINC000434204837
##########                DOCK_Rotatable_Bonds:                   7
##########                         Heavy_Atoms:                  29
##########                    Molecular_Weight:             406.511
##########                DOCK_Rotatable_Bonds:                   7
##########                       Formal_Charge:          -0.0200002
##########                     HBond_Acceptors:                   8
##########                        HBond_Donors:                   0
##########                         Heavy_Atoms:                  29
##########                          Grid_Score:          -37.920414
##########                     Grid_vdw_energy:          -37.554283
##########                      Grid_es_energy:           -0.366132
##########           Internal_energy_repulsive:           18.297493

@<TRIPOS>MOLECULE
ZINC000434204837
 51 54 1 0 0
SMALL
USER_CHARGES


@<TRIPOS>ATOM
      1 C1        -13.3022   -0.0500   54.1643 C.3     1  ZINC000434204837   -0.1300
      2 C2        -12.1097   -0.2505   55.0638 C.ar    1  ZINC000434204837   -0.0700
      3 C3        -12.2794   -0.3052   56.4343 C.ar    1  ZINC000434204837   -0.1200
      4 C4        -11.1853   -0.4891   57.2595 C.ar    1  ZINC000434204837   -0.1100
      5 C5         -9.9222   -0.6187   56.7137 C.ar    1  ZINC000434204837   -0.1300
      6 C6         -9.7526   -0.5649   55.3427 C.ar    1  ZINC000434204837   -0.0900
      7 C7        -10.8468   -0.3853   54.5175 C.ar    1  ZINC000434204837   -0.1000
      8 C8        -10.6620   -0.3266   53.0231 C.3     1  ZINC000434204837    0.0100
      9 C9         -9.2021   -0.1308   52.7047 C.2     1  ZINC000434204837    0.2000
     10 N10        -8.5404    1.0008   52.7386 N.2     1  ZINC000434204837   -0.4600
     11 C11        -7.2803    0.6943   52.3825 C.2     1  ZINC000434204837    0.1700
     12 C12        -6.1262    1.6566   52.2692 C.3     1  ZINC000434204837   -0.0300
     13 S13        -5.9251    2.1568   50.5413 S.3     1  ZINC000434204837    0.0900
     14 C14        -5.0899    3.6924   50.7625 C.2     1  ZINC000434204837    0.2100
     15 N15        -5.6194    4.8151   51.1985 N.2     1  ZINC000434204837   -0.3300
     16 N16        -4.7335    5.7437   51.2411 N.2     1  ZINC000434204837   -0.0200
     17 N17        -3.5925    5.2950   50.8434 N.2     1  ZINC000434204837   -0.0700
     18 N18        -3.7777    3.9392   50.5208 N.pl3   1  ZINC000434204837   -0.3100
     19 C19        -2.8152    3.0379   50.0440 C.ar    1  ZINC000434204837    0.1100
     20 C20        -1.5636    2.9765   50.6415 C.ar    1  ZINC000434204837   -0.1100
     21 C21        -0.6175    2.0873   50.1700 C.ar    1  ZINC000434204837   -0.0900
     22 C22        -0.9161    1.2592   49.1036 C.ar    1  ZINC000434204837   -0.0600
     23 C23         0.1183    0.2902   48.5915 C.3     1  ZINC000434204837   -0.0600
     24 C24        -0.4499   -1.1299   48.6302 C.3     1  ZINC000434204837   -0.1500
     25 C25         0.4879    0.6525   47.1517 C.3     1  ZINC000434204837   -0.1500
     26 C26        -2.1619    1.3182   48.5064 C.ar    1  ZINC000434204837   -0.1000
     27 C27        -3.1138    2.2013   48.9772 C.ar    1  ZINC000434204837   -0.0900
     28 N28        -7.2406   -0.5844   52.1544 N.2     1  ZINC000434204837   -0.3600
     29 O29        -8.3331   -1.0781   52.3394 O.3     1  ZINC000434204837    0.0900
     30 H30       -13.7211   -1.0195   53.8948 H       1  ZINC000434204837    0.0800
     31 H31       -14.0562    0.5391   54.6865 H       1  ZINC000434204837    0.0700
     32 H32       -12.9918    0.4754   53.2612 H       1  ZINC000434204837    0.0700
     33 H33       -13.2664   -0.2040   56.8607 H       1  ZINC000434204837    0.1300
     34 H34       -11.3179   -0.5311   58.3305 H       1  ZINC000434204837    0.1200
     35 H35        -9.0675   -0.7617   57.3583 H       1  ZINC000434204837    0.1300
     36 H36        -8.7655   -0.6658   54.9163 H       1  ZINC000434204837    0.1300
     37 H37       -11.0093   -1.2587   52.5771 H       1  ZINC000434204837    0.1200
     38 H38       -11.2370    0.5062   52.6183 H       1  ZINC000434204837    0.1200
     39 H39        -6.3251    2.5364   52.8812 H       1  ZINC000434204837    0.1300
     40 H40        -5.2135    1.1718   52.6157 H       1  ZINC000434204837    0.1400
     41 H41        -1.3296    3.6235   51.4740 H       1  ZINC000434204837    0.1400
     42 H42         0.3562    2.0390   50.6344 H       1  ZINC000434204837    0.1400
     43 H43         1.0078    0.3429   49.2192 H       1  ZINC000434204837    0.0800
     44 H44        -1.3394   -1.1825   48.0025 H       1  ZINC000434204837    0.0600
     45 H45         0.2982   -1.8308   48.2599 H       1  ZINC000434204837    0.0600
     46 H46        -0.7133   -1.3880   49.6560 H       1  ZINC000434204837    0.0600
     47 H47         0.8927    1.6642   47.1241 H       1  ZINC000434204837    0.0600
     48 H48         1.2360   -0.0484   46.7813 H       1  ZINC000434204837    0.0600
     49 H49        -0.4016    0.5998   46.5240 H       1  ZINC000434204837    0.0600
     50 H50        -2.3920    0.6704   47.6734 H       1  ZINC000434204837    0.1400
     51 H51        -4.0866    2.2468   48.5104 H       1  ZINC000434204837    0.1400
@<TRIPOS>BOND
     1     1     2    1
     2     1    30    1
     3     1    31    1
     4     1    32    1
     5     2     7   ar
     6     2     3   ar
     7     3     4   ar
     8     3    33    1
     9     4     5   ar
    10     4    34    1
    11     5     6   ar
    12     5    35    1
    13     6     7   ar
    14     6    36    1
    15     7     8    1
    16     8     9    1
    17     8    37    1
    18     8    38    1
    19     9    29    1
    20     9    10    2
    21    10    11    1
    22    11    12    1
    23    11    28    2
    24    12    13    1
    25    12    39    1
    26    12    40    1
    27    13    14    1
    28    14    18    1
    29    14    15    2
    30    15    16    1
    31    16    17    2
    32    17    18    1
    33    18    19    1
    34    19    27   ar
    35    19    20   ar
    36    20    21   ar
    37    20    41    1
    38    21    22   ar
    39    21    42    1
    40    22    23    1
    41    22    26   ar
    42    23    24    1
    43    23    25    1
    44    23    43    1
    45    24    44    1
    46    24    45    1
    47    24    46    1
    48    25    47    1
    49    25    48    1
    50    25    49    1
    51    26    27   ar
    52    26    50    1
    53    27    51    1
    54    28    29    1
@<TRIPOS>SUBSTRUCTURE
     1 ZINC000434204837        1 TEMP              0 ****  ****    0 ROOT


##########                                Name:    ZINC000474251633
##########                DOCK_Rotatable_Bonds:                   8
##########                         Heavy_Atoms:                  28
##########                    Molecular_Weight:             416.931
##########                DOCK_Rotatable_Bonds:                   8
##########                       Formal_Charge:          0.00999953
##########                     HBond_Acceptors:                   8
##########                        HBond_Donors:                   2
##########                         Heavy_Atoms:                  28
##########                          Grid_Score:          -37.911362
##########                     Grid_vdw_energy:          -37.045448
##########                      Grid_es_energy:           -0.865913
##########           Internal_energy_repulsive:            6.939632

@<TRIPOS>MOLECULE
ZINC000474251633
 49 52 1 0 0
SMALL
USER_CHARGES


@<TRIPOS>ATOM
      1 O1         -5.9014    1.0970   52.1041 O.2     1  ZINC000474251633   -0.5300
      2 C2         -6.1285    2.2875   52.0591 C.2     1  ZINC000474251633    0.5100
      3 C3         -6.6279    3.0062   53.2860 C.3     1  ZINC000474251633    0.1000
      4 N4         -7.0999    2.0265   54.2676 N.am    1  ZINC000474251633   -0.7100
      5 C5         -7.6914    2.4431   55.4047 C.2     1  ZINC000474251633    0.5900
      6 O6         -7.8347    3.6328   55.6154 O.2     1  ZINC000474251633   -0.5000
      7 C7         -8.1628    1.4611   56.3894 C.2     1  ZINC000474251633   -0.2300
      8 C8         -7.7200    1.3738   57.6492 C.2     1  ZINC000474251633    0.0400
      9 Cl9        -6.5048    2.4413   58.2799 Cl      1  ZINC000474251633   -0.0100
     10 C10        -8.3049    0.3603   58.4278 C.ar    1  ZINC000474251633   -0.0900
     11 C11        -8.0512    0.0200   59.7775 C.ar    1  ZINC000474251633   -0.0600
     12 C12        -8.7226   -1.0037   60.3690 C.ar    1  ZINC000474251633   -0.1200
     13 C13        -9.6688   -1.7340   59.6608 C.ar    1  ZINC000474251633   -0.0800
     14 C14        -9.9370   -1.4278   58.3482 C.ar    1  ZINC000474251633   -0.0900
     15 C15        -9.2597   -0.3789   57.7182 C.ar    1  ZINC000474251633   -0.1200
     16 S16        -9.3897    0.2458   56.0780 S.3     1  ZINC000474251633    0.1700
     17 N17        -5.9289    2.9689   50.9135 N.am    1  ZINC000474251633   -0.7200
     18 C18        -5.4434    2.2702   49.7209 C.3     1  ZINC000474251633    0.2100
     19 C19        -3.9468    2.4190   49.6260 C.2     1  ZINC000474251633    0.0500
     20 N20        -3.1314    1.5974   49.0162 N.2     1  ZINC000474251633   -0.2700
     21 N21        -1.8275    2.0899   49.1572 N.pl3   1  ZINC000474251633   -0.3600
     22 C22        -0.6106    1.4728   48.6235 C.3     1  ZINC000474251633    0.1500
     23 C23        -0.1939    0.2776   49.5053 C.3     1  ZINC000474251633   -0.1400
     24 C24        -0.8065   -0.9529   48.7915 C.3     1  ZINC000474251633   -0.1300
     25 C25        -0.6158   -0.6091   47.2933 C.3     1  ZINC000474251633   -0.1200
     26 C26        -0.8789    0.9090   47.2171 C.3     1  ZINC000474251633   -0.1400
     27 C27        -1.8904    3.2332   49.8713 C.2     1  ZINC000474251633    0.0600
     28 C28        -3.1902    3.4625   50.1692 C.2     1  ZINC000474251633   -0.2600
     29 H29        -5.8173    3.5926   53.7188 H       1  ZINC000474251633    0.1100
     30 H30        -7.4485    3.6686   53.0103 H       1  ZINC000474251633    0.1100
     31 H31        -6.9868    1.0779   54.0991 H       1  ZINC000474251633    0.4100
     32 H32        -7.3186    0.5775   60.3422 H       1  ZINC000474251633    0.1300
     33 H33        -8.5180   -1.2521   61.3999 H       1  ZINC000474251633    0.1400
     34 H34       -10.1947   -2.5447   60.1431 H       1  ZINC000474251633    0.1400
     35 H35       -10.6730   -1.9989   57.8016 H       1  ZINC000474251633    0.1400
     36 H36        -6.1069    3.9218   50.8787 H       1  ZINC000474251633    0.4100
     37 H37        -5.6999    1.2131   49.7895 H       1  ZINC000474251633    0.0900
     38 H38        -5.9082    2.7000   48.8336 H       1  ZINC000474251633    0.0900
     39 H39         0.1938    2.2072   48.5842 H       1  ZINC000474251633    0.1100
     40 H40         0.8922    0.1938   49.5456 H       1  ZINC000474251633    0.0900
     41 H41        -0.6069    0.3815   50.5086 H       1  ZINC000474251633    0.0800
     42 H42        -0.2625   -1.8609   49.0518 H       1  ZINC000474251633    0.0800
     43 H43        -1.8647   -1.0525   49.0332 H       1  ZINC000474251633    0.0700
     44 H44         0.4021   -0.8362   46.9765 H       1  ZINC000474251633    0.0700
     45 H45        -1.3366   -1.1524   46.6825 H       1  ZINC000474251633    0.0700
     46 H46        -1.9144    1.0946   46.9317 H       1  ZINC000474251633    0.0700
     47 H47        -0.2041    1.3692   46.4954 H       1  ZINC000474251633    0.0800
     48 H48        -1.0535    3.8560   50.1512 H       1  ZINC000474251633    0.1700
     49 H49        -3.5749    4.2999   50.7323 H       1  ZINC000474251633    0.1500
@<TRIPOS>BOND
     1     1     2    2
     2     2     3    1
     3     2    17   am
     4     3     4    1
     5     3    29    1
     6     3    30    1
     7     4     5   am
     8     4    31    1
     9     5     6    2
    10     5     7    1
    11     7    16    1
    12     7     8    2
    13     8     9    1
    14     8    10    1
    15    10    15   ar
    16    10    11   ar
    17    11    12   ar
    18    11    32    1
    19    12    13   ar
    20    12    33    1
    21    13    14   ar
    22    13    34    1
    23    14    15   ar
    24    14    35    1
    25    15    16    1
    26    17    18    1
    27    17    36    1
    28    18    19    1
    29    18    37    1
    30    18    38    1
    31    19    28    1
    32    19    20    2
    33    20    21    1
    34    21    22    1
    35    21    27    1
    36    22    26    1
    37    22    23    1
    38    22    39    1
    39    23    24    1
    40    23    40    1
    41    23    41    1
    42    24    25    1
    43    24    42    1
    44    24    43    1
    45    25    26    1
    46    25    44    1
    47    25    45    1
    48    26    46    1
    49    26    47    1
    50    27    28    2
    51    27    48    1
    52    28    49    1
@<TRIPOS>SUBSTRUCTURE
     1 ZINC000474251633        1 TEMP              0 ****  ****    0 ROOT


##########                                Name:     oleObject27.pdb
##########                DOCK_Rotatable_Bonds:                   9
##########                         Heavy_Atoms:                  35
##########                    Molecular_Weight:             513.466
##########                DOCK_Rotatable_Bonds:                   9
##########                       Formal_Charge:         0.000199873
##########                     HBond_Acceptors:                   8
##########                        HBond_Donors:                   1
##########                         Heavy_Atoms:                  35
##########                          Grid_Score:          -37.871811
##########                     Grid_vdw_energy:          -37.140785
##########                      Grid_es_energy:           -0.731027
##########           Internal_energy_repulsive:           16.372877

@<TRIPOS>MOLECULE
oleObject27.pdb
 65 68 1 0 0
SMALL
NO_CHARGES


@<TRIPOS>ATOM
      1 C         -14.9090    0.6771   54.1573 C.ar    1  UNL        -0.0620
      2 C         -14.6775    0.8830   55.5250 C.ar    1  UNL        -0.0590
      3 C         -13.4109    0.6299   56.0866 C.ar    1  UNL        -0.0456
      4 C         -12.3561    0.1690   55.2599 C.ar    1  UNL        -0.0187
      5 C         -12.6077   -0.0442   53.8866 C.ar    1  UNL        -0.0565
      6 C         -13.8734    0.2097   53.3380 C.ar    1  UNL        -0.0619
      7 C         -10.9606   -0.1161   55.8371 C.3     1  UNL         0.0921
      8 C         -10.9102   -1.4161   56.6461 C.ar    1  UNL         0.0681
      9 C         -10.3116   -1.4838   57.9292 C.ar    1  UNL        -0.0272
     10 C         -10.2994   -2.7234   58.5959 C.ar    1  UNL        -0.0559
     11 C         -10.8662   -3.8426   57.9689 C.ar    1  UNL        -0.0435
     12 C         -11.4225   -3.6873   56.6904 C.ar    1  UNL         0.0272
     13 N         -11.4396   -2.5062   56.0446 N.ar    1  UNL        -0.2587
     14 C          -9.6753   -0.2701   58.5969 C.3     1  UNL        -0.0379
     15 N          -9.9054   -0.1115   54.8135 N.am    1  UNL        -0.2865
     16 C          -8.7486    0.6421   54.8983 C.2     1  UNL         0.3014
     17 O          -8.5253    1.3731   55.8490 O.2     1  UNL        -0.2541
     18 N          -7.8655    0.5117   53.8248 N.am    1  UNL        -0.2833
     19 C          -8.1487   -0.3785   52.6660 C.3     1  UNL         0.0284
     20 C          -6.9289   -0.6839   51.7630 C.3     1  UNL         0.0142
     21 N          -6.1485    0.5234   51.4406 N.4     1  UNL        -0.2979
     22 C          -5.6658    1.1404   52.6918 C.3     1  UNL         0.0142
     23 C          -6.8271    1.5524   53.6256 C.3     1  UNL         0.0284
     24 C          -6.8469    1.4327   50.5003 C.3     1  UNL         0.0223
     25 C          -6.1321    2.7869   50.3191 C.3     1  UNL         0.0661
     26 O          -4.8098    2.5180   49.8212 O.3     1  UNL        -0.3432
     27 C          -3.6902    3.2344   50.1980 C.ar    1  UNL         0.0937
     28 C          -3.7823    4.4328   50.9379 C.ar    1  UNL        -0.0288
     29 C          -2.6182    5.1304   51.3009 C.ar    1  UNL        -0.0408
     30 C          -1.3578    4.6374   50.9285 C.ar    1  UNL         0.0422
     31 C          -1.2578    3.4461   50.1930 C.ar    1  UNL        -0.0221
     32 C          -2.4200    2.7462   49.8286 C.ar    1  UNL         0.0723
     33 CL         -2.2604    1.2612   48.9093 Cl      1  UNL        -0.0814
     34 CL          0.0909    5.5092   51.3825 Cl      1  UNL        -0.0843
     35 C         -13.2178    0.8548   57.5827 C.3     1  UNL        -0.0394
     36 H         -15.8904    0.8741   53.7354 H       1  UNL         0.0623
     37 H         -15.4902    1.2393   56.1517 H       1  UNL         0.0626
     38 H         -11.8219   -0.4161   53.2359 H       1  UNL         0.0627
     39 H         -14.0505    0.0419   52.2797 H       1  UNL         0.0623
     40 H         -10.7234    0.7117   56.5118 H       1  UNL         0.0625
     41 H          -9.8542   -2.8202   59.5822 H       1  UNL         0.0627
     42 H         -10.8695   -4.8113   58.4598 H       1  UNL         0.0639
     43 H         -11.8677   -4.5325   56.1670 H       1  UNL         0.0840
     44 H          -8.9362    0.2021   57.9374 H       1  UNL         0.0280
     45 H          -9.1568   -0.5437   59.5243 H       1  UNL         0.0280
     46 H         -10.4325    0.4813   58.8528 H       1  UNL         0.0280
     47 H         -10.0542   -0.6606   53.9786 H       1  UNL         0.1521
     48 H          -8.9306    0.0954   52.0588 H       1  UNL         0.0484
     49 H          -8.5405   -1.3393   53.0219 H       1  UNL         0.0484
     50 H          -7.2686   -1.1767   50.8430 H       1  UNL         0.0447
     51 H          -6.2809   -1.3954   52.2912 H       1  UNL         0.0447
     52 H          -5.0319    2.0108   52.4863 H       1  UNL         0.0447
     53 H          -5.0411    0.4131   53.2266 H       1  UNL         0.0447
     54 H          -7.3166    2.4442   53.2141 H       1  UNL         0.0484
     55 H          -6.4012    1.8311   54.5981 H       1  UNL         0.0484
     56 H          -7.8750    1.6183   50.8361 H       1  UNL         0.0455
     57 H          -6.9065    0.9514   49.5156 H       1  UNL         0.0455
     58 H          -6.0780    3.3048   51.2853 H       1  UNL         0.0586
     59 H          -6.6814    3.4118   49.6045 H       1  UNL         0.0586
     60 H          -4.7460    4.8318   51.2369 H       1  UNL         0.0652
     61 H          -2.6945    6.0524   51.8705 H       1  UNL         0.0639
     62 H          -0.2819    3.0654   49.9053 H       1  UNL         0.0655
     63 H         -14.1613    1.1130   58.0795 H       1  UNL         0.0280
     64 H         -12.5144    1.6755   57.7704 H       1  UNL         0.0280
     65 H         -12.8306   -0.0475   58.0717 H       1  UNL         0.0280
@<TRIPOS>BOND
     1     1     2   ar
     2     1     6   ar
     3     1    36    1
     4     2     3   ar
     5     2    37    1
     6     3     4   ar
     7     3    35    1
     8     4     5   ar
     9     4     7    1
    10     5     6   ar
    11     5    38    1
    12     6    39    1
    13     7     8    1
    14     7    15    1
    15     7    40    1
    16     8     9   ar
    17     8    13   ar
    18     9    10   ar
    19     9    14    1
    20    10    11   ar
    21    10    41    1
    22    11    12   ar
    23    11    42    1
    24    12    13   ar
    25    12    43    1
    26    14    44    1
    27    14    45    1
    28    14    46    1
    29    15    16   am
    30    15    47    1
    31    16    17    2
    32    16    18   am
    33    18    19    1
    34    18    23    1
    35    19    20    1
    36    19    48    1
    37    19    49    1
    38    20    21    1
    39    20    50    1
    40    20    51    1
    41    21    22    1
    42    21    24    1
    43    22    23    1
    44    22    52    1
    45    22    53    1
    46    23    54    1
    47    23    55    1
    48    24    25    1
    49    24    56    1
    50    24    57    1
    51    25    26    1
    52    25    58    1
    53    25    59    1
    54    26    27    1
    55    27    28   ar
    56    27    32   ar
    57    28    29   ar
    58    28    60    1
    59    29    30   ar
    60    29    61    1
    61    30    31   ar
    62    30    34    1
    63    31    32   ar
    64    31    62    1
    65    32    33    1
    66    35    63    1
    67    35    64    1
    68    35    65    1
@<TRIPOS>SUBSTRUCTURE
     1 UNL         1 TEMP              0 ****  ****    0 ROOT


##########                                Name:    ZINC000432253027
##########                DOCK_Rotatable_Bonds:                   8
##########                         Heavy_Atoms:                  26
##########                    Molecular_Weight:             401.436
##########                DOCK_Rotatable_Bonds:                   8
##########                       Formal_Charge:         1.19209e-07
##########                     HBond_Acceptors:                  11
##########                        HBond_Donors:                   0
##########                         Heavy_Atoms:                  26
##########                          Grid_Score:          -37.871670
##########                     Grid_vdw_energy:          -37.288788
##########                      Grid_es_energy:           -0.582882
##########           Internal_energy_repulsive:            8.383280

@<TRIPOS>MOLECULE
ZINC000432253027
 40 42 1 0 0
SMALL
USER_CHARGES


@<TRIPOS>ATOM
      1 C1         -1.1205    2.9482   45.6406 C.3     1  ZINC000432253027    0.0300
      2 O2         -2.1921    2.1646   46.1696 O.3     1  ZINC000432253027   -0.3100
      3 C3         -1.8716    0.9494   46.6844 C.ar    1  ZINC000432253027    0.1500
      4 C4         -1.6764   -0.1330   45.8424 C.ar    1  ZINC000432253027   -0.2100
      5 C5         -1.3507   -1.3695   46.3675 C.ar    1  ZINC000432253027   -0.0600
      6 C6         -1.2171   -1.5353   47.7349 C.ar    1  ZINC000432253027   -0.1600
      7 C7         -1.4083   -0.4670   48.5869 C.ar    1  ZINC000432253027   -0.0300
      8 C8         -1.7315    0.7869   48.0684 C.ar    1  ZINC000432253027   -0.0600
      9 C9         -1.9377    1.9352   48.9756 C.2     1  ZINC000432253027    0.1200
     10 N10        -3.0931    2.3882   49.3709 N.2     1  ZINC000432253027   -0.4600
     11 C11        -3.0831    3.4218   50.1817 C.2     1  ZINC000432253027    0.0800
     12 C12        -4.3534    4.0374   50.7092 C.3     1  ZINC000432253027   -0.0200
     13 S13        -5.2234    2.8318   51.7486 S.3     1  ZINC000432253027   -0.1700
     14 C14        -6.2093    1.8946   50.5485 C.3     1  ZINC000432253027   -0.0300
     15 C15        -6.7541    0.6531   51.2064 C.2     1  ZINC000432253027    0.2100
     16 N16        -6.4772   -0.5876   50.8871 N.2     1  ZINC000432253027   -0.2700
     17 N17        -7.1378   -1.3594   51.6795 N.2     1  ZINC000432253027   -0.0500
     18 N18        -7.8290   -0.6433   52.4961 N.2     1  ZINC000432253027   -0.0700
     19 N19        -7.6151    0.6031   52.2398 N.pl3   1  ZINC000432253027   -0.3100
     20 C20        -8.2059    1.7484   52.9364 C.3     1  ZINC000432253027    0.0700
     21 C21        -9.4902    1.3090   53.6422 C.3     1  ZINC000432253027    0.4300
     22 F22        -9.1740    0.4202   54.6752 F       1  ZINC000432253027   -0.1500
     23 F23       -10.1375    2.4299   54.1732 F       1  ZINC000432253027   -0.1700
     24 F24       -10.3338    0.6751   52.7235 F       1  ZINC000432253027   -0.1700
     25 C25        -1.8763    3.8934   50.5101 C.2     1  ZINC000432253027   -0.2500
     26 S26        -0.6600    2.9064   49.7021 S.3     1  ZINC000432253027    0.1600
     27 H27        -1.5128    3.8923   45.2627 H       1  ZINC000432253027    0.1000
     28 H28        -0.3924    3.1462   46.4273 H       1  ZINC000432253027    0.0600
     29 H29        -0.6387    2.4038   44.8284 H       1  ZINC000432253027    0.0600
     30 H30        -1.7792   -0.0107   44.7743 H       1  ZINC000432253027    0.1400
     31 H31        -1.2002   -2.2108   45.7072 H       1  ZINC000432253027    0.1300
     32 H32        -0.9624   -2.5049   48.1367 H       1  ZINC000432253027    0.1300
     33 H33        -1.3034   -0.6005   49.6535 H       1  ZINC000432253027    0.1400
     34 H34        -4.1109    4.9197   51.3015 H       1  ZINC000432253027    0.1000
     35 H35        -4.9921    4.3249   49.8740 H       1  ZINC000432253027    0.1100
     36 H36        -7.0359    2.5117   50.1964 H       1  ZINC000432253027    0.1100
     37 H37        -5.5811    1.6123   49.7037 H       1  ZINC000432253027    0.1300
     38 H38        -7.4987    2.1299   53.6730 H       1  ZINC000432253027    0.1500
     39 H39        -8.4375    2.5323   52.2152 H       1  ZINC000432253027    0.1600
     40 H40        -1.6802    4.7323   51.1614 H       1  ZINC000432253027    0.1800
@<TRIPOS>BOND
     1     1     2    1
     2     1    27    1
     3     1    28    1
     4     1    29    1
     5     2     3    1
     6     3     8   ar
     7     3     4   ar
     8     4     5   ar
     9     4    30    1
    10     5     6   ar
    11     5    31    1
    12     6     7   ar
    13     6    32    1
    14     7     8   ar
    15     7    33    1
    16     8     9    1
    17     9    26    1
    18     9    10    2
    19    10    11    1
    20    11    12    1
    21    11    25    2
    22    12    13    1
    23    12    34    1
    24    12    35    1
    25    13    14    1
    26    14    15    1
    27    14    36    1
    28    14    37    1
    29    15    19    1
    30    15    16    2
    31    16    17    1
    32    17    18    2
    33    18    19    1
    34    19    20    1
    35    20    21    1
    36    20    38    1
    37    20    39    1
    38    21    22    1
    39    21    23    1
    40    21    24    1
    41    25    26    1
    42    25    40    1
@<TRIPOS>SUBSTRUCTURE
     1 ZINC000432253027        1 TEMP              0 ****  ****    0 ROOT


##########                                Name:    ZINC000562561773
##########                DOCK_Rotatable_Bonds:                   6
##########                         Heavy_Atoms:                  26
##########                    Molecular_Weight:             371.466
##########                DOCK_Rotatable_Bonds:                   6
##########                       Formal_Charge:           0.0199999
##########                     HBond_Acceptors:                   9
##########                        HBond_Donors:                   0
##########                         Heavy_Atoms:                  26
##########                          Grid_Score:          -37.871456
##########                     Grid_vdw_energy:          -36.951477
##########                      Grid_es_energy:           -0.919977
##########           Internal_energy_repulsive:            9.079346

@<TRIPOS>MOLECULE
ZINC000562561773
 47 50 1 0 0
SMALL
USER_CHARGES


@<TRIPOS>ATOM
      1 C1        -10.0596   -0.6352   55.6242 C.3     1  ZINC000562561773   -0.1100
      2 C2         -9.0928   -0.0994   54.5998 C.ar    1  ZINC000562561773   -0.0400
      3 C3         -8.9295   -0.7574   53.3959 C.ar    1  ZINC000562561773   -0.1200
      4 C4         -8.0452   -0.2715   52.4531 C.ar    1  ZINC000562561773   -0.0700
      5 C5         -7.3139    0.8855   52.7139 C.ar    1  ZINC000562561773   -0.0300
      6 C6         -6.3634    1.4090   51.7012 C.2     1  ZINC000562561773    0.2200
      7 N7         -6.5128    1.3692   50.4028 N.2     1  ZINC000562561773   -0.3700
      8 O8         -5.5581    1.8812   49.8575 O.3     1  ZINC000562561773    0.0900
      9 C9         -4.6832    2.3093   50.7730 C.2     1  ZINC000562561773    0.1900
     10 C10        -3.3712    2.9999   50.5033 C.3     1  ZINC000562561773   -0.0100
     11 C11        -2.8181    2.5352   49.1547 C.3     1  ZINC000562561773   -0.1200
     12 S12        -1.9404    0.9670   49.3704 S.3     1  ZINC000562561773    0.0600
     13 C13        -1.5296    0.6131   47.6940 C.2     1  ZINC000562561773    0.2100
     14 N14        -1.7938    1.3668   46.6487 N.2     1  ZINC000562561773   -0.3300
     15 N15        -1.3570    0.8150   45.5745 N.2     1  ZINC000562561773   -0.0300
     16 N16        -0.7919   -0.3111   45.8470 N.2     1  ZINC000562561773   -0.0700
     17 N17        -0.8775   -0.4831   47.2396 N.pl3   1  ZINC000562561773   -0.3600
     18 C18        -0.3768   -1.6110   48.0290 C.3     1  ZINC000562561773    0.0800
     19 N19        -5.1837    2.0217   51.9487 N.2     1  ZINC000562561773   -0.4600
     20 C20        -7.4774    1.5496   53.9266 C.ar    1  ZINC000562561773   -0.1100
     21 C21        -8.3717    1.0587   54.8663 C.ar    1  ZINC000562561773    0.0800
     22 N22        -8.5395    1.7217   56.0844 N.3     1  ZINC000562561773   -0.4800
     23 C23        -7.2403    1.8831   56.7860 C.3     1  ZINC000562561773    0.0400
     24 C24        -7.5148    3.0407   57.7785 C.3     1  ZINC000562561773   -0.1200
     25 C25        -8.4349    3.9812   56.9668 C.3     1  ZINC000562561773   -0.1300
     26 C26        -9.0578    3.0911   55.8755 C.3     1  ZINC000562561773    0.0400
     27 H27       -11.0449   -0.2004   55.4562 H       1  ZINC000562561773    0.0700
     28 H28       -10.1208   -1.7197   55.5337 H       1  ZINC000562561773    0.0600
     29 H29        -9.7124   -0.3729   56.6236 H       1  ZINC000562561773    0.0800
     30 H30        -9.4951   -1.6546   53.1918 H       1  ZINC000562561773    0.1400
     31 H31        -7.9202   -0.7889   51.5134 H       1  ZINC000562561773    0.1400
     32 H32        -3.5264    4.0785   50.4803 H       1  ZINC000562561773    0.1200
     33 H33        -2.6612    2.7518   51.2922 H       1  ZINC000562561773    0.1300
     34 H34        -3.6403    2.3978   48.4525 H       1  ZINC000562561773    0.1100
     35 H35        -2.1301    3.2860   48.7660 H       1  ZINC000562561773    0.1100
     36 H36         0.6487   -1.4105   48.3392 H       1  ZINC000562561773    0.1000
     37 H37        -1.0036   -1.7441   48.9108 H       1  ZINC000562561773    0.1000
     38 H38        -0.4028   -2.5176   47.4245 H       1  ZINC000562561773    0.1100
     39 H39        -6.9125    2.4465   54.1333 H       1  ZINC000562561773    0.1300
     40 H40        -6.9766    0.9713   57.3218 H       1  ZINC000562561773    0.0900
     41 H41        -6.4546    2.1580   56.0823 H       1  ZINC000562561773    0.0500
     42 H42        -8.0271    2.6731   58.6677 H       1  ZINC000562561773    0.0800
     43 H43        -6.5874    3.5462   58.0477 H       1  ZINC000562561773    0.0700
     44 H44        -9.2135    4.3947   57.6078 H       1  ZINC000562561773    0.0800
     45 H45        -7.8514    4.7828   56.5138 H       1  ZINC000562561773    0.0700
     46 H46        -8.7651    3.4525   54.8897 H       1  ZINC000562561773    0.0500
     47 H47       -10.1438    3.0952   55.9680 H       1  ZINC000562561773    0.0800
@<TRIPOS>BOND
     1     1     2    1
     2     1    27    1
     3     1    28    1
     4     1    29    1
     5     2    21   ar
     6     2     3   ar
     7     3     4   ar
     8     3    30    1
     9     4     5   ar
    10     4    31    1
    11     5     6    1
    12     5    20   ar
    13     6    19    1
    14     6     7    2
    15     7     8    1
    16     8     9    1
    17     9    10    1
    18     9    19    2
    19    10    11    1
    20    10    32    1
    21    10    33    1
    22    11    12    1
    23    11    34    1
    24    11    35    1
    25    12    13    1
    26    13    17    1
    27    13    14    2
    28    14    15    1
    29    15    16    2
    30    16    17    1
    31    17    18    1
    32    18    36    1
    33    18    37    1
    34    18    38    1
    35    20    21   ar
    36    20    39    1
    37    21    22    1
    38    22    26    1
    39    22    23    1
    40    23    24    1
    41    23    40    1
    42    23    41    1
    43    24    25    1
    44    24    42    1
    45    24    43    1
    46    25    26    1
    47    25    44    1
    48    25    45    1
    49    26    46    1
    50    26    47    1
@<TRIPOS>SUBSTRUCTURE
     1 ZINC000562561773        1 TEMP              0 ****  ****    0 ROOT


##########                                Name:     oleObject17.pdb
##########                DOCK_Rotatable_Bonds:                   8
##########                         Heavy_Atoms:                  29
##########                    Molecular_Weight:             435.393
##########                DOCK_Rotatable_Bonds:                   8
##########                       Formal_Charge:         0.000400059
##########                     HBond_Acceptors:                   6
##########                        HBond_Donors:                   0
##########                         Heavy_Atoms:                  29
##########                          Grid_Score:          -37.748722
##########                     Grid_vdw_energy:          -37.814545
##########                      Grid_es_energy:            0.065821
##########           Internal_energy_repulsive:           18.380064

@<TRIPOS>MOLECULE
oleObject17.pdb
 57 59 1 0 0
SMALL
NO_CHARGES


@<TRIPOS>ATOM
      1 C           1.0932    2.2067   45.2196 C.3     1  UNL         0.0391
      2 C           0.3646    1.2299   44.2942 C.ar    1  UNL        -0.0277
      3 C           0.9439    0.7233   43.1034 C.ar    1  UNL        -0.0463
      4 C           0.1966   -0.1477   42.2861 C.ar    1  UNL        -0.0590
      5 C          -1.1085   -0.5201   42.6393 C.ar    1  UNL        -0.0620
      6 C          -1.6758   -0.0342   43.8247 C.ar    1  UNL        -0.0619
      7 C          -0.9393    0.8305   44.6477 C.ar    1  UNL        -0.0572
      8 C           2.3616    1.0837   42.6730 C.3     1  UNL        -0.0394
      9 N           1.1197    1.7500   46.6257 N.am    1  UNL        -0.3003
     10 C           0.5973    2.5409   47.6488 C.2     1  UNL         0.2175
     11 O          -0.1574    3.4602   47.3806 O.2     1  UNL        -0.2772
     12 C           0.6784    1.9619   49.0861 C.3     1  UNL         0.0384
     13 C          -0.2965    0.7783   49.3102 C.3     1  UNL        -0.0289
     14 C          -1.7633    1.2508   49.3190 C.3     1  UNL        -0.0010
     15 N          -2.0006    2.2875   50.3474 N.4     1  UNL        -0.3010
     16 C          -1.0795    3.4460   50.2753 C.3     1  UNL        -0.0010
     17 C           0.4107    3.0275   50.1839 C.3     1  UNL        -0.0289
     18 C          -3.4260    2.6659   50.4808 C.3     1  UNL         0.0222
     19 C          -4.3052    2.1964   49.2984 C.3     1  UNL         0.0661
     20 O          -5.6257    2.7375   49.4728 O.3     1  UNL        -0.3432
     21 C          -6.4819    2.3166   50.4724 C.ar    1  UNL         0.0937
     22 C          -6.5601    0.9636   50.8676 C.ar    1  UNL        -0.0288
     23 C          -7.4372    0.5762   51.8939 C.ar    1  UNL        -0.0408
     24 C          -8.2424    1.5346   52.5291 C.ar    1  UNL         0.0422
     25 C          -8.1736    2.8813   52.1393 C.ar    1  UNL        -0.0221
     26 C          -7.2965    3.2718   51.1135 C.ar    1  UNL         0.0723
     27 CL         -7.2306    4.9631   50.6545 Cl      1  UNL        -0.0814
     28 CL         -9.3342    1.0490   53.8085 Cl      1  UNL        -0.0843
     29 C           1.7319    0.4310   46.8689 C.3     1  UNL         0.0031
     30 H           0.6304    3.1994   45.1897 H       1  UNL         0.0520
     31 H           2.1197    2.3288   44.8516 H       1  UNL         0.0520
     32 H           0.6276   -0.5399   41.3694 H       1  UNL         0.0626
     33 H          -1.6757   -1.1894   41.9985 H       1  UNL         0.0623
     34 H          -2.6841   -0.3250   44.1046 H       1  UNL         0.0623
     35 H          -1.3909    1.2045   45.5619 H       1  UNL         0.0626
     36 H           3.0850    0.8648   43.4680 H       1  UNL         0.0280
     37 H           2.4422    2.1470   42.4203 H       1  UNL         0.0280
     38 H           2.6737    0.5146   41.7887 H       1  UNL         0.0280
     39 H           1.7019    1.5961   49.2298 H       1  UNL         0.0402
     40 H          -0.0718    0.3028   50.2737 H       1  UNL         0.0288
     41 H          -0.1627    0.0042   48.5474 H       1  UNL         0.0288
     42 H          -2.4143    0.3864   49.5023 H       1  UNL         0.0431
     43 H          -2.0047    1.6460   48.3256 H       1  UNL         0.0431
     44 H          -1.2132    4.0780   51.1625 H       1  UNL         0.0431
     45 H          -1.3269    4.0615   49.4032 H       1  UNL         0.0431
     46 H           0.7139    2.6157   51.1552 H       1  UNL         0.0288
     47 H           1.0365    3.9128   50.0128 H       1  UNL         0.0288
     48 H          -3.5088    3.7566   50.5700 H       1  UNL         0.0455
     49 H          -3.8284    2.2340   51.4061 H       1  UNL         0.0455
     50 H          -4.3588    1.1018   49.2838 H       1  UNL         0.0586
     51 H          -3.8768    2.5438   48.3505 H       1  UNL         0.0586
     52 H          -5.9498    0.2051   50.3883 H       1  UNL         0.0651
     53 H          -7.4923   -0.4663   52.1946 H       1  UNL         0.0639
     54 H          -8.7977    3.6219   52.6313 H       1  UNL         0.0655
     55 H           2.5590    0.2614   46.1680 H       1  UNL         0.0433
     56 H           0.9855   -0.3613   46.7355 H       1  UNL         0.0433
     57 H           2.1341    0.3818   47.8882 H       1  UNL         0.0433
@<TRIPOS>BOND
     1     1     2    1
     2     1     9    1
     3     1    30    1
     4     1    31    1
     5     2     3   ar
     6     2     7   ar
     7     3     4   ar
     8     3     8    1
     9     4     5   ar
    10     4    32    1
    11     5     6   ar
    12     5    33    1
    13     6     7   ar
    14     6    34    1
    15     7    35    1
    16     8    36    1
    17     8    37    1
    18     8    38    1
    19     9    10   am
    20     9    29    1
    21    10    11    2
    22    10    12    1
    23    12    13    1
    24    12    17    1
    25    12    39    1
    26    13    14    1
    27    13    40    1
    28    13    41    1
    29    14    15    1
    30    14    42    1
    31    14    43    1
    32    15    16    1
    33    15    18    1
    34    16    17    1
    35    16    44    1
    36    16    45    1
    37    17    46    1
    38    17    47    1
    39    18    19    1
    40    18    48    1
    41    18    49    1
    42    19    20    1
    43    19    50    1
    44    19    51    1
    45    20    21    1
    46    21    22   ar
    47    21    26   ar
    48    22    23   ar
    49    22    52    1
    50    23    24   ar
    51    23    53    1
    52    24    25   ar
    53    24    28    1
    54    25    26   ar
    55    25    54    1
    56    26    27    1
    57    29    55    1
    58    29    56    1
    59    29    57    1
@<TRIPOS>SUBSTRUCTURE
     1 UNL         1 TEMP              0 ****  ****    0 ROOT


##########                                Name:    ZINC000770814339
##########                DOCK_Rotatable_Bonds:                  13
##########                         Heavy_Atoms:                  28
##########                    Molecular_Weight:             409.423
##########                DOCK_Rotatable_Bonds:                  13
##########                       Formal_Charge:          -0.0100008
##########                     HBond_Acceptors:                  12
##########                        HBond_Donors:                   4
##########                         Heavy_Atoms:                  28
##########                          Grid_Score:          -37.742233
##########                     Grid_vdw_energy:          -36.400608
##########                      Grid_es_energy:           -1.341626
##########           Internal_energy_repulsive:           12.775940

@<TRIPOS>MOLECULE
ZINC000770814339
 47 48 1 0 0
SMALL
USER_CHARGES


@<TRIPOS>ATOM
      1 C1         -1.0783   -1.0698   47.4182 C.3     1  ZINC000770814339   -0.1500
      2 C2         -0.7360   -0.8261   48.8894 C.3     1  ZINC000770814339    0.0600
      3 O3         -1.6292    0.1811   49.4337 O.3     1  ZINC000770814339   -0.3500
      4 C4         -1.3449    1.4627   49.1542 C.2     1  ZINC000770814339    0.4700
      5 O5         -0.4651    1.7293   48.3702 O.2     1  ZINC000770814339   -0.4800
      6 C6         -2.1230    2.5693   49.8185 C.3     1  ZINC000770814339    0.0700
      7 O7         -3.4006    2.6963   49.1910 O.3     1  ZINC000770814339   -0.1800
      8 N8         -4.3795    1.8043   49.6922 N.2     1  ZINC000770814339   -0.2800
      9 C9         -5.1246    2.1551   50.7021 C.2     1  ZINC000770814339    0.1800
     10 C10        -6.1480    1.2209   51.2278 C.2     1  ZINC000770814339    0.5900
     11 O11        -6.4672    0.2430   50.5813 O.2     1  ZINC000770814339   -0.5100
     12 N12        -6.7246    1.4563   52.4230 N.am    1  ZINC000770814339   -0.7000
     13 C13        -7.7350    0.5320   52.9435 C.3     1  ZINC000770814339    0.1500
     14 C14        -7.9128    0.7627   54.4221 C.ar    1  ZINC000770814339   -0.0600
     15 C15        -8.9411    0.1360   55.1008 C.ar    1  ZINC000770814339   -0.1200
     16 C16        -9.1041    0.3477   56.4571 C.ar    1  ZINC000770814339   -0.0200
     17 C17        -8.2385    1.1856   57.1348 C.ar    1  ZINC000770814339   -0.6700
     18 S18        -8.4466    1.4559   58.8635 S.o2    1  ZINC000770814339    2.7000
     19 N19        -9.9533    0.9007   59.2685 N.am    1  ZINC000770814339   -1.2500
     20 O20        -7.5160    0.6042   59.5177 O.2     1  ZINC000770814339   -0.9600
     21 O21        -8.4747    2.8645   59.0489 O.2     1  ZINC000770814339   -0.9600
     22 C22        -7.2093    1.8113   56.4565 C.ar    1  ZINC000770814339   -0.0200
     23 C23        -7.0440    1.5966   55.1009 C.ar    1  ZINC000770814339   -0.1200
     24 C24        -4.9494    3.4834   51.3225 C.2     1  ZINC000770814339    0.0600
     25 C25        -4.2596    3.7605   52.4832 C.2     1  ZINC000770814339   -0.2000
     26 C26        -4.3421    5.1340   52.7070 C.2     1  ZINC000770814339    0.0400
     27 N27        -5.0417    5.6753   51.7419 N.2     1  ZINC000770814339   -0.2600
     28 N28        -5.4349    4.6685   50.8515 N.pl3   1  ZINC000770814339   -0.4400
     29 H29        -0.4078   -1.8259   47.0096 H       1  ZINC000770814339    0.0800
     30 H30        -2.1087   -1.4160   47.3374 H       1  ZINC000770814339    0.0700
     31 H31        -0.9622   -0.1412   46.8595 H       1  ZINC000770814339    0.0700
     32 H32        -0.8521   -1.7548   49.4481 H       1  ZINC000770814339    0.0700
     33 H33         0.2943   -0.4798   48.9701 H       1  ZINC000770814339    0.0700
     34 H34        -2.2584    2.3350   50.8743 H       1  ZINC000770814339    0.1100
     35 H35        -1.5759    3.5070   49.7216 H       1  ZINC000770814339    0.1100
     36 H36        -6.4706    2.2377   52.9386 H       1  ZINC000770814339    0.4100
     37 H37        -8.6823    0.7039   52.4325 H       1  ZINC000770814339    0.0900
     38 H38        -7.4108   -0.4946   52.7724 H       1  ZINC000770814339    0.0900
     39 H39        -9.6175   -0.5186   54.5713 H       1  ZINC000770814339    0.1400
     40 H40        -9.9081   -0.1414   56.9871 H       1  ZINC000770814339    0.1500
     41 H41       -10.1820   -0.0308   59.1240 H       1  ZINC000770814339    0.4200
     42 H42       -10.6071    1.5071   59.6503 H       1  ZINC000770814339    0.4200
     43 H43        -6.5327    2.4656   56.9860 H       1  ZINC000770814339    0.1500
     44 H44        -6.2398    2.0853   54.5709 H       1  ZINC000770814339    0.1400
     45 H45        -3.7477    3.0428   53.1071 H       1  ZINC000770814339    0.1700
     46 H46        -3.9021    5.6637   53.5390 H       1  ZINC000770814339    0.1900
     47 H47        -5.9629    4.7908   50.0470 H       1  ZINC000770814339    0.4500
@<TRIPOS>BOND
     1     1     2    1
     2     1    29    1
     3     1    30    1
     4     1    31    1
     5     2     3    1
     6     2    32    1
     7     2    33    1
     8     3     4    1
     9     4     5    2
    10     4     6    1
    11     6     7    1
    12     6    34    1
    13     6    35    1
    14     7     8    1
    15     8     9    2
    16     9    10    1
    17     9    24    1
    18    10    11    2
    19    10    12   am
    20    12    13    1
    21    12    36    1
    22    13    14    1
    23    13    37    1
    24    13    38    1
    25    14    23   ar
    26    14    15   ar
    27    15    16   ar
    28    15    39    1
    29    16    17   ar
    30    16    40    1
    31    17    18    1
    32    17    22   ar
    33    18    19   am
    34    18    20    2
    35    18    21    2
    36    19    41    1
    37    19    42    1
    38    22    23   ar
    39    22    43    1
    40    23    44    1
    41    24    28    1
    42    24    25    2
    43    25    26    1
    44    25    45    1
    45    26    27    2
    46    26    46    1
    47    27    28    1
    48    28    47    1
@<TRIPOS>SUBSTRUCTURE
     1 ZINC000770814339        1 TEMP              0 ****  ****    0 ROOT


##########                                Name:    ZINC000015179664
##########                DOCK_Rotatable_Bonds:                   8
##########                         Heavy_Atoms:                  25
##########                    Molecular_Weight:             361.422
##########                DOCK_Rotatable_Bonds:                   8
##########                       Formal_Charge:        -2.23517e-07
##########                     HBond_Acceptors:                   8
##########                        HBond_Donors:                   1
##########                         Heavy_Atoms:                  25
##########                          Grid_Score:          -37.731464
##########                     Grid_vdw_energy:          -37.259144
##########                      Grid_es_energy:           -0.472320
##########           Internal_energy_repulsive:           25.080805

@<TRIPOS>MOLECULE
ZINC000015179664
 44 45 1 0 0
SMALL
USER_CHARGES


@<TRIPOS>ATOM
      1 C1          0.5270    0.6419   49.7034 C.3     1  ZINC000015179664   -0.1600
      2 C2         -0.8973    1.0784   49.3542 C.3     1  ZINC000015179664    0.1800
      3 H3         -1.5999    0.3026   49.6581 H       1  ZINC000015179664    0.1200
      4 C4         -1.0047    1.2992   47.8673 C.ar    1  ZINC000015179664   -0.1000
      5 C5         -0.7567    2.5502   47.3348 C.ar    1  ZINC000015179664   -0.0700
      6 C6         -0.8552    2.7527   45.9706 C.ar    1  ZINC000015179664   -0.1200
      7 C7         -1.2014    1.7039   45.1395 C.ar    1  ZINC000015179664   -0.0500
      8 C8         -1.4485    0.4523   45.6722 C.ar    1  ZINC000015179664   -0.0400
      9 N9         -1.8196   -0.6707   44.7822 N.pl3   1  ZINC000015179664    0.0300
     10 O10        -1.9072   -0.4922   43.5806 O.2     1  ZINC000015179664   -0.1600
     11 O11        -2.0373   -1.7734   45.2516 O.2     1  ZINC000015179664   -0.1500
     12 C12        -1.3458    0.2488   47.0355 C.ar    1  ZINC000015179664   -0.0400
     13 N13        -1.2121    2.3248   50.0569 N.am    1  ZINC000015179664   -0.6100
     14 C14        -0.1430    3.0944   50.6980 C.3     1  ZINC000015179664    0.0600
     15 C15        -2.4852    2.7634   50.1135 C.2     1  ZINC000015179664    0.5200
     16 O16        -2.7460    3.7945   50.6963 O.2     1  ZINC000015179664   -0.5200
     17 C17        -3.5847    1.9728   49.4523 C.3     1  ZINC000015179664   -0.1500
     18 C18        -4.8981    2.7524   49.5415 C.3     1  ZINC000015179664    0.1300
     19 N19        -5.4307    2.6578   50.9029 N.am    1  ZINC000015179664   -0.7300
     20 C20        -6.2265    1.6253   51.2450 C.2     1  ZINC000015179664    0.5800
     21 O21        -6.5038    0.7727   50.4229 O.2     1  ZINC000015179664   -0.5300
     22 C22        -6.7603    1.5294   52.6134 C.2     1  ZINC000015179664   -0.1500
     23 C23        -7.5036    0.4802   53.0566 C.2     1  ZINC000015179664   -0.2200
     24 S24        -7.9512    0.7005   54.6864 S.3     1  ZINC000015179664    0.1900
     25 C25        -7.1206    2.2435   54.7843 C.2     1  ZINC000015179664   -0.2300
     26 C26        -6.5432    2.5369   53.6252 C.2     1  ZINC000015179664   -0.0900
     27 H27         0.7613   -0.2854   49.1806 H       1  ZINC000015179664    0.0800
     28 H28         1.2297    1.4178   49.3995 H       1  ZINC000015179664    0.0600
     29 H29         0.6047    0.4823   50.7789 H       1  ZINC000015179664    0.0700
     30 H30        -0.4863    3.3697   47.9841 H       1  ZINC000015179664    0.1500
     31 H31        -0.6622    3.7304   45.5545 H       1  ZINC000015179664    0.1500
     32 H32        -1.2790    1.8623   44.0740 H       1  ZINC000015179664    0.1600
     33 H33        -1.5388   -0.7288   47.4516 H       1  ZINC000015179664    0.1600
     34 H34         0.2932    3.7829   49.9744 H       1  ZINC000015179664    0.0600
     35 H35        -0.5537    3.6592   51.5350 H       1  ZINC000015179664    0.0800
     36 H36         0.6267    2.4137   51.0619 H       1  ZINC000015179664    0.0800
     37 H37        -3.3322    1.8048   48.4054 H       1  ZINC000015179664    0.1000
     38 H38        -3.6965    1.0134   49.9575 H       1  ZINC000015179664    0.1000
     39 H39        -4.7172    3.7984   49.2940 H       1  ZINC000015179664    0.0800
     40 H40        -5.6183    2.3323   48.8395 H       1  ZINC000015179664    0.0800
     41 H41        -5.2106    3.3383   51.5582 H       1  ZINC000015179664    0.4000
     42 H42        -7.7737   -0.3765   52.4569 H       1  ZINC000015179664    0.1700
     43 H43        -7.0813    2.8659   55.6659 H       1  ZINC000015179664    0.1700
     44 H44        -5.9759    3.4399   53.4543 H       1  ZINC000015179664    0.1600
@<TRIPOS>BOND
     1     1     2    1
     2     1    27    1
     3     1    28    1
     4     1    29    1
     5     2     3    1
     6     2     4    1
     7     2    13    1
     8     4    12   ar
     9     4     5   ar
    10     5     6   ar
    11     5    30    1
    12     6     7   ar
    13     6    31    1
    14     7     8   ar
    15     7    32    1
    16     8     9    1
    17     8    12   ar
    18     9    10    2
    19     9    11    2
    20    12    33    1
    21    13    14    1
    22    13    15   am
    23    14    34    1
    24    14    35    1
    25    14    36    1
    26    15    16    2
    27    15    17    1
    28    17    18    1
    29    17    37    1
    30    17    38    1
    31    18    19    1
    32    18    39    1
    33    18    40    1
    34    19    20   am
    35    19    41    1
    36    20    21    2
    37    20    22    1
    38    22    26    1
    39    22    23    2
    40    23    24    1
    41    23    42    1
    42    24    25    1
    43    25    26    2
    44    25    43    1
    45    26    44    1
@<TRIPOS>SUBSTRUCTURE
     1 ZINC000015179664        1 TEMP              0 ****  ****    0 ROOT


##########                                Name:    ZINC000032503012
##########                DOCK_Rotatable_Bonds:                   8
##########                         Heavy_Atoms:                  27
##########                    Molecular_Weight:             390.503
##########                DOCK_Rotatable_Bonds:                   8
##########                       Formal_Charge:           0.0099995
##########                     HBond_Acceptors:                   7
##########                        HBond_Donors:                   2
##########                         Heavy_Atoms:                  27
##########                          Grid_Score:          -37.657337
##########                     Grid_vdw_energy:          -38.066025
##########                      Grid_es_energy:            0.408686
##########           Internal_energy_repulsive:           42.188900

@<TRIPOS>MOLECULE
ZINC000032503012
 53 54 1 0 0
SMALL
USER_CHARGES


@<TRIPOS>ATOM
      1 C1         -9.4108   -0.6622   53.8910 C.3     1  ZINC000032503012   -0.1200
      2 C2         -8.9669    0.5314   53.0852 C.ar    1  ZINC000032503012   -0.0500
      3 C3         -9.8210    1.6048   52.9131 C.ar    1  ZINC000032503012   -0.1600
      4 C4         -9.4167    2.7016   52.1743 C.ar    1  ZINC000032503012   -0.0700
      5 C5         -8.1579    2.7271   51.6062 C.ar    1  ZINC000032503012   -0.1500
      6 C6         -7.2989    1.6510   51.7775 C.ar    1  ZINC000032503012    0.1300
      7 O7         -6.0596    1.6739   51.2199 O.3     1  ZINC000032503012   -0.2800
      8 C8         -5.5702    2.9417   50.7784 C.3     1  ZINC000032503012    0.0700
      9 H9         -6.3096    3.4106   50.1290 H       1  ZINC000032503012    0.1100
     10 C10        -5.3135    3.8395   51.9904 C.3     1  ZINC000032503012   -0.1800
     11 C11        -4.2846    2.7463   50.0167 C.2     1  ZINC000032503012    0.5200
     12 O12        -4.2952    2.7265   48.8041 O.2     1  ZINC000032503012   -0.4900
     13 N13        -3.1231    2.5935   50.6830 N.am    1  ZINC000032503012   -0.6700
     14 C14        -1.9294    2.4121   49.9759 C.ar    1  ZINC000032503012    0.1300
     15 C15        -0.9649    3.4110   49.9713 C.ar    1  ZINC000032503012   -0.0600
     16 C16         0.2125    3.2289   49.2723 C.ar    1  ZINC000032503012   -0.1200
     17 C17         0.4309    2.0538   48.5772 C.ar    1  ZINC000032503012   -0.0300
     18 C18        -0.5279    1.0571   48.5795 C.ar    1  ZINC000032503012   -0.6600
     19 S19        -0.2448   -0.4386   47.6922 S.o2    1  ZINC000032503012    2.7000
     20 O20         1.0790   -0.3579   47.1818 O.2     1  ZINC000032503012   -0.9600
     21 O21        -0.6908   -1.4942   48.5324 O.2     1  ZINC000032503012   -0.9500
     22 N22        -1.2537   -0.4280   46.3791 N.am    1  ZINC000032503012   -1.1100
     23 C23        -1.1485    0.6412   45.3831 C.3     1  ZINC000032503012    0.1700
     24 C24         0.3250    0.9865   45.1591 C.3     1  ZINC000032503012   -0.1900
     25 C25        -1.7688    0.1732   44.0651 C.3     1  ZINC000032503012   -0.1500
     26 C26        -1.8922    1.8806   45.8850 C.3     1  ZINC000032503012   -0.1800
     27 C27        -1.7043    1.2303   49.2818 C.ar    1  ZINC000032503012   -0.0400
     28 C28        -7.7047    0.5545   52.5238 C.ar    1  ZINC000032503012   -0.2100
     29 H29        -9.1466   -0.5126   54.9378 H       1  ZINC000032503012    0.0700
     30 H30       -10.4909   -0.7794   53.8020 H       1  ZINC000032503012    0.0700
     31 H31        -8.9160   -1.5580   53.5159 H       1  ZINC000032503012    0.0700
     32 H32       -10.8057    1.5866   53.3562 H       1  ZINC000032503012    0.1300
     33 H33       -10.0858    3.5388   52.0410 H       1  ZINC000032503012    0.1300
     34 H34        -7.8427    3.5837   51.0290 H       1  ZINC000032503012    0.1300
     35 H35        -6.2434    3.9810   52.5412 H       1  ZINC000032503012    0.0800
     36 H36        -4.5742    3.3707   52.6397 H       1  ZINC000032503012    0.0800
     37 H37        -4.9402    4.8066   51.6535 H       1  ZINC000032503012    0.0800
     38 H38        -3.1146    2.6093   51.6530 H       1  ZINC000032503012    0.4100
     39 H39        -1.1352    4.3294   50.5134 H       1  ZINC000032503012    0.1400
     40 H40         0.9631    4.0054   49.2683 H       1  ZINC000032503012    0.1400
     41 H41         1.3522    1.9140   48.0312 H       1  ZINC000032503012    0.1500
     42 H42        -1.9143   -1.1298   46.2693 H       1  ZINC000032503012    0.4200
     43 H43         0.8887    0.0718   44.9754 H       1  ZINC000032503012    0.0700
     44 H44         0.4163    1.6487   44.2982 H       1  ZINC000032503012    0.0800
     45 H45         0.7201    1.4849   46.0444 H       1  ZINC000032503012    0.0700
     46 H46        -2.8185   -0.0727   44.2246 H       1  ZINC000032503012    0.0700
     47 H47        -1.6905    0.9688   43.3241 H       1  ZINC000032503012    0.0700
     48 H48        -1.2389   -0.7097   43.7075 H       1  ZINC000032503012    0.0600
     49 H49        -1.3360    2.3296   46.7080 H       1  ZINC000032503012    0.0900
     50 H50        -1.9854    2.6020   45.0732 H       1  ZINC000032503012    0.0700
     51 H51        -2.8848    1.5932   46.2314 H       1  ZINC000032503012    0.0600
     52 H52        -2.4527    0.4517   49.2832 H       1  ZINC000032503012    0.1400
     53 H53        -7.0378   -0.2844   52.6584 H       1  ZINC000032503012    0.1300
@<TRIPOS>BOND
     1     1     2    1
     2     1    29    1
     3     1    30    1
     4     1    31    1
     5     2    28   ar
     6     2     3   ar
     7     3     4   ar
     8     3    32    1
     9     4     5   ar
    10     4    33    1
    11     5     6   ar
    12     5    34    1
    13     6     7    1
    14     6    28   ar
    15     7     8    1
    16     8     9    1
    17     8    10    1
    18     8    11    1
    19    10    35    1
    20    10    36    1
    21    10    37    1
    22    11    12    2
    23    11    13   am
    24    13    14    1
    25    13    38    1
    26    14    27   ar
    27    14    15   ar
    28    15    16   ar
    29    15    39    1
    30    16    17   ar
    31    16    40    1
    32    17    18   ar
    33    17    41    1
    34    18    19    1
    35    18    27   ar
    36    19    20    2
    37    19    21    2
    38    19    22   am
    39    22    23    1
    40    22    42    1
    41    23    24    1
    42    23    25    1
    43    23    26    1
    44    24    43    1
    45    24    44    1
    46    24    45    1
    47    25    46    1
    48    25    47    1
    49    25    48    1
    50    26    49    1
    51    26    50    1
    52    26    51    1
    53    27    52    1
    54    28    53    1
@<TRIPOS>SUBSTRUCTURE
     1 ZINC000032503012        1 TEMP              0 ****  ****    0 ROOT


##########                                Name:    ZINC001344051361
##########                DOCK_Rotatable_Bonds:                   8
##########                         Heavy_Atoms:                  28
##########                    Molecular_Weight:             379.456
##########                DOCK_Rotatable_Bonds:                   8
##########                       Formal_Charge:          -0.0100006
##########                     HBond_Acceptors:                   5
##########                        HBond_Donors:                   0
##########                         Heavy_Atoms:                  28
##########                          Grid_Score:          -37.653576
##########                     Grid_vdw_energy:          -36.848381
##########                      Grid_es_energy:           -0.805196
##########           Internal_energy_repulsive:           22.600540

@<TRIPOS>MOLECULE
ZINC001344051361
 53 56 1 0 0
SMALL
USER_CHARGES


@<TRIPOS>ATOM
      1 O1         -5.4948    1.7005   49.8026 O.2     1  ZINC001344051361   -0.4800
      2 C2         -4.7698    2.5163   50.3211 C.2     1  ZINC001344051361    0.4800
      3 O3         -3.5685    2.7835   49.7851 O.3     1  ZINC001344051361   -0.3500
      4 C4         -2.4511    1.9724   50.2344 C.3     1  ZINC001344051361    0.0700
      5 C5         -1.6203    1.5347   49.0263 C.3     1  ZINC001344051361   -0.1000
      6 H6         -0.8136    2.2489   48.8616 H       1  ZINC001344051361    0.0900
      7 C7         -1.0290    0.1478   49.2886 C.3     1  ZINC001344051361   -0.1200
      8 C8         -0.1711   -0.2770   48.0945 C.3     1  ZINC001344051361   -0.1300
      9 C9         -1.0494   -0.3548   46.8419 C.3     1  ZINC001344051361    0.0800
     10 N10        -1.7355    0.9323   46.6646 N.am    1  ZINC001344051361   -0.6100
     11 C11        -1.6515    1.6001   45.4968 C.2     1  ZINC001344051361    0.5600
     12 O12        -2.2237    2.6641   45.3627 O.2     1  ZINC001344051361   -0.5300
     13 C13        -0.8634    1.0384   44.3791 C.ar    1  ZINC001344051361   -0.1300
     14 C14         0.3965    1.5586   44.0790 C.ar    1  ZINC001344051361   -0.1000
     15 C15         1.1270    1.0297   43.0349 C.ar    1  ZINC001344051361   -0.1300
     16 C16         0.6129   -0.0138   42.2858 C.ar    1  ZINC001344051361   -0.0900
     17 C17        -0.6356   -0.5337   42.5777 C.ar    1  ZINC001344051361   -0.1300
     18 C18        -1.3737   -0.0181   43.6231 C.ar    1  ZINC001344051361   -0.0600
     19 C19        -2.5149    1.4782   47.7841 C.3     1  ZINC001344051361    0.1200
     20 C20        -5.2168    3.2384   51.5660 C.3     1  ZINC001344051361    0.0200
     21 O21        -6.4757    2.8239   52.1004 O.3     1  ZINC001344051361   -0.2500
     22 C22        -7.5922    3.2902   51.4819 C.ar    1  ZINC001344051361    0.1200
     23 C23        -7.4796    4.0710   50.3406 C.ar    1  ZINC001344051361   -0.2000
     24 C24        -8.6162    4.5434   49.7134 C.ar    1  ZINC001344051361   -0.0800
     25 C25        -9.8653    4.2390   50.2224 C.ar    1  ZINC001344051361   -0.1500
     26 C26        -9.9801    3.4614   51.3598 C.ar    1  ZINC001344051361   -0.0800
     27 C27        -8.8468    2.9814   51.9872 C.ar    1  ZINC001344051361   -0.1400
     28 C28        -4.1357    3.6714   52.5583 C.3     1  ZINC001344051361   -0.1700
     29 C29        -4.8463    4.7171   51.6966 C.3     1  ZINC001344051361   -0.1100
     30 H30        -1.8277    2.5560   50.9118 H       1  ZINC001344051361    0.0800
     31 H31        -2.8274    1.0918   50.7548 H       1  ZINC001344051361    0.0800
     32 H32        -0.4114    0.1801   50.1862 H       1  ZINC001344051361    0.0700
     33 H33        -1.8365   -0.5706   49.4294 H       1  ZINC001344051361    0.0700
     34 H34         0.6220    0.4542   47.9379 H       1  ZINC001344051361    0.0700
     35 H35         0.2686   -1.2546   48.2919 H       1  ZINC001344051361    0.0800
     36 H36        -0.4267   -0.5599   45.9711 H       1  ZINC001344051361    0.1100
     37 H37        -1.7869   -1.1485   46.9614 H       1  ZINC001344051361    0.0700
     38 H38         0.7986    2.3736   44.6625 H       1  ZINC001344051361    0.1400
     39 H39         2.1020    1.4312   42.8016 H       1  ZINC001344051361    0.1300
     40 H40         1.1886   -0.4240   41.4693 H       1  ZINC001344051361    0.1300
     41 H41        -1.0312   -1.3480   41.9889 H       1  ZINC001344051361    0.1300
     42 H42        -2.3480   -0.4250   43.8502 H       1  ZINC001344051361    0.1300
     43 H43        -3.3720    0.8342   47.9808 H       1  ZINC001344051361    0.0700
     44 H44        -2.8591    2.4819   47.5346 H       1  ZINC001344051361    0.1000
     45 H45        -6.5042    4.3097   49.9432 H       1  ZINC001344051361    0.1300
     46 H46        -8.5291    5.1514   48.8250 H       1  ZINC001344051361    0.1300
     47 H47       -10.7526    4.6096   49.7307 H       1  ZINC001344051361    0.1300
     48 H48       -10.9569    3.2253   51.7556 H       1  ZINC001344051361    0.1300
     49 H49        -8.9370    2.3740   52.8756 H       1  ZINC001344051361    0.1300
     50 H50        -4.3845    3.6401   53.6190 H       1  ZINC001344051361    0.1200
     51 H51        -3.1011    3.4340   52.3106 H       1  ZINC001344051361    0.1200
     52 H52        -4.2792    5.1677   50.8821 H       1  ZINC001344051361    0.1200
     53 H53        -5.5626    5.3737   52.1904 H       1  ZINC001344051361    0.1200
@<TRIPOS>BOND
     1     1     2    2
     2     2     3    1
     3     2    20    1
     4     3     4    1
     5     4     5    1
     6     4    30    1
     7     4    31    1
     8     5     6    1
     9     5    19    1
    10     5     7    1
    11     7     8    1
    12     7    32    1
    13     7    33    1
    14     8     9    1
    15     8    34    1
    16     8    35    1
    17     9    10    1
    18     9    36    1
    19     9    37    1
    20    10    11   am
    21    10    19    1
    22    11    12    2
    23    11    13    1
    24    13    18   ar
    25    13    14   ar
    26    14    15   ar
    27    14    38    1
    28    15    16   ar
    29    15    39    1
    30    16    17   ar
    31    16    40    1
    32    17    18   ar
    33    17    41    1
    34    18    42    1
    35    19    43    1
    36    19    44    1
    37    20    29    1
    38    20    21    1
    39    20    28    1
    40    21    22    1
    41    22    27   ar
    42    22    23   ar
    43    23    24   ar
    44    23    45    1
    45    24    25   ar
    46    24    46    1
    47    25    26   ar
    48    25    47    1
    49    26    27   ar
    50    26    48    1
    51    27    49    1
    52    28    29    1
    53    28    50    1
    54    28    51    1
    55    29    52    1
    56    29    53    1
@<TRIPOS>SUBSTRUCTURE
     1 ZINC001344051361        1 TEMP              0 ****  ****    0 ROOT


##########                                Name:    ZINC001248546333
##########                DOCK_Rotatable_Bonds:                   6
##########                         Heavy_Atoms:                  27
##########                    Molecular_Weight:             378.397
##########                DOCK_Rotatable_Bonds:                   6
##########                       Formal_Charge:         3.94881e-07
##########                     HBond_Acceptors:                   8
##########                        HBond_Donors:                   1
##########                         Heavy_Atoms:                  27
##########                          Grid_Score:          -37.593815
##########                     Grid_vdw_energy:          -37.095509
##########                      Grid_es_energy:           -0.498307
##########           Internal_energy_repulsive:           27.631334

@<TRIPOS>MOLECULE
ZINC001248546333
 48 50 1 0 0
SMALL
USER_CHARGES


@<TRIPOS>ATOM
      1 C1         -8.6988    0.7619   56.6897 C.3     1  ZINC001248546333   -0.1200
      2 C2         -8.4337    0.4673   55.2357 C.ar    1  ZINC001248546333   -0.0800
      3 C3         -9.1270   -0.5466   54.5996 C.ar    1  ZINC001248546333   -0.1200
      4 C4         -8.8895   -0.8235   53.2648 C.ar    1  ZINC001248546333   -0.1100
      5 C5         -7.9589   -0.0884   52.5598 C.ar    1  ZINC001248546333   -0.1100
      6 C6         -7.2566    0.9361   53.1956 C.ar    1  ZINC001248546333   -0.0600
      7 C7         -6.2581    1.7277   52.4463 C.2     1  ZINC001248546333   -0.0600
      8 C8         -5.5606    2.6179   53.1095 C.2     1  ZINC001248546333   -0.1700
      9 C9         -4.5260    3.5027   52.4713 C.3     1  ZINC001248546333    0.1500
     10 N10        -4.2572    3.0243   51.1076 N.am    1  ZINC001248546333   -0.6300
     11 C11        -3.0004    2.9456   50.6275 C.2     1  ZINC001248546333    0.7200
     12 O12        -2.0610    3.2739   51.3261 O.2     1  ZINC001248546333   -0.5800
     13 N13        -2.7847    2.5030   49.3728 N.am    1  ZINC001248546333   -0.7500
     14 C14        -1.4185    2.4174   48.8509 C.3     1  ZINC001248546333    0.2000
     15 C15        -1.3386    1.3103   47.8317 C.2     1  ZINC001248546333    0.0700
     16 C16        -1.5635    1.4314   46.5028 C.2     1  ZINC001248546333   -0.2000
     17 C17        -1.3856    0.1725   45.9198 C.2     1  ZINC001248546333   -0.0200
     18 C18        -1.5360   -0.1525   44.4559 C.3     1  ZINC001248546333    0.5600
     19 F19        -0.3704    0.2140   43.7747 F       1  ZINC001248546333   -0.1700
     20 F20        -1.7533   -1.5260   44.3031 F       1  ZINC001248546333   -0.1700
     21 F21        -2.6241    0.5530   43.9310 F       1  ZINC001248546333   -0.1600
     22 N22        -1.0653   -0.6739   46.8645 N.2     1  ZINC001248546333   -0.2200
     23 N23        -1.0241    0.0216   48.0798 N.pl3   1  ZINC001248546333   -0.3400
     24 C24        -0.7048   -0.5507   49.3901 C.3     1  ZINC001248546333    0.0900
     25 C25        -5.4168    2.6348   50.2867 C.3     1  ZINC001248546333    0.1300
     26 C26        -6.1068    1.4545   50.9793 C.3     1  ZINC001248546333   -0.1000
     27 C27        -7.5042    1.2134   54.5404 C.ar    1  ZINC001248546333   -0.1100
     28 H28        -9.4980    1.4986   56.7713 H       1  ZINC001248546333    0.0700
     29 H29        -8.9967   -0.1552   57.1978 H       1  ZINC001248546333    0.0700
     30 H30        -7.7933    1.1556   57.1516 H       1  ZINC001248546333    0.0700
     31 H31        -9.8564   -1.1250   55.1471 H       1  ZINC001248546333    0.1200
     32 H32        -9.4335   -1.6169   52.7741 H       1  ZINC001248546333    0.1200
     33 H33        -7.7742   -0.3058   51.5181 H       1  ZINC001248546333    0.1200
     34 H34        -5.7387    2.7213   54.1697 H       1  ZINC001248546333    0.1200
     35 H35        -4.8971    4.5267   52.4315 H       1  ZINC001248546333    0.0800
     36 H36        -3.6072    3.4695   53.0568 H       1  ZINC001248546333    0.0800
     37 H37        -3.5341    2.2410   48.8154 H       1  ZINC001248546333    0.4000
     38 H38        -1.1491    3.3636   48.3815 H       1  ZINC001248546333    0.1000
     39 H39        -0.7294    2.2086   49.6691 H       1  ZINC001248546333    0.0900
     40 H40        -1.8331    2.3395   45.9843 H       1  ZINC001248546333    0.1700
     41 H41         0.3695   -0.4864   49.5627 H       1  ZINC001248546333    0.0900
     42 H42        -1.2315    0.0037   50.1668 H       1  ZINC001248546333    0.1000
     43 H43        -1.0150   -1.5953   49.4155 H       1  ZINC001248546333    0.1000
     44 H44        -6.1080    3.4734   50.2038 H       1  ZINC001248546333    0.0700
     45 H45        -5.0812    2.3333   49.2944 H       1  ZINC001248546333    0.1000
     46 H46        -5.5113    0.5531   50.8341 H       1  ZINC001248546333    0.0800
     47 H47        -7.0935    1.3059   50.5407 H       1  ZINC001248546333    0.0900
     48 H48        -6.9638    2.0051   55.0382 H       1  ZINC001248546333    0.1200
@<TRIPOS>BOND
     1     1     2    1
     2     1    28    1
     3     1    29    1
     4     1    30    1
     5     2    27   ar
     6     2     3   ar
     7     3     4   ar
     8     3    31    1
     9     4     5   ar
    10     4    32    1
    11     5     6   ar
    12     5    33    1
    13     6     7    1
    14     6    27   ar
    15     7    26    1
    16     7     8    2
    17     8     9    1
    18     8    34    1
    19     9    10    1
    20     9    35    1
    21     9    36    1
    22    10    11   am
    23    10    25    1
    24    11    12    2
    25    11    13   am
    26    13    14    1
    27    13    37    1
    28    14    15    1
    29    14    38    1
    30    14    39    1
    31    15    23    1
    32    15    16    2
    33    16    17    1
    34    16    40    1
    35    17    18    1
    36    17    22    2
    37    18    19    1
    38    18    20    1
    39    18    21    1
    40    22    23    1
    41    23    24    1
    42    24    41    1
    43    24    42    1
    44    24    43    1
    45    25    26    1
    46    25    44    1
    47    25    45    1
    48    26    46    1
    49    26    47    1
    50    27    48    1
@<TRIPOS>SUBSTRUCTURE
     1 ZINC001248546333        1 TEMP              0 ****  ****    0 ROOT


##########                                Name:    ZINC001109848453
##########                DOCK_Rotatable_Bonds:                   8
##########                         Heavy_Atoms:                  24
##########                    Molecular_Weight:             328.337
##########                DOCK_Rotatable_Bonds:                   8
##########                       Formal_Charge:          0.00999966
##########                     HBond_Acceptors:                  11
##########                        HBond_Donors:                   2
##########                         Heavy_Atoms:                  24
##########                          Grid_Score:          -37.589569
##########                     Grid_vdw_energy:          -36.942192
##########                      Grid_es_energy:           -0.647378
##########           Internal_energy_repulsive:            8.562616

@<TRIPOS>MOLECULE
ZINC001109848453
 40 43 1 0 0
SMALL
USER_CHARGES


@<TRIPOS>ATOM
      1 O1         -5.1334    4.9147   50.9031 O.2     1  ZINC001109848453   -0.5000
      2 C2         -5.2336    3.7754   50.4995 C.2     1  ZINC001109848453    0.5000
      3 C3         -6.5920    3.2048   50.1832 C.3     1  ZINC001109848453    0.1100
      4 N4         -6.7617    1.9300   50.8847 N.pl3   1  ZINC001109848453   -0.3700
      5 C5         -7.6298    1.6653   51.8764 C.2     1  ZINC001109848453    0.2600
      6 N6         -7.4711    0.4164   52.2325 N.2     1  ZINC001109848453   -0.5400
      7 C7         -6.5152   -0.1460   51.4941 C.2     1  ZINC001109848453    0.2000
      8 N8         -6.0539    0.7397   50.6507 N.2     1  ZINC001109848453   -0.2900
      9 N9         -4.1296    3.0213   50.3286 N.am    1  ZINC001109848453   -0.7300
     10 C10        -2.8090    3.5760   50.6362 C.3     1  ZINC001109848453    0.1700
     11 H11        -2.7060    4.5528   50.1635 H       1  ZINC001109848453    0.1000
     12 C12        -1.7248    2.6358   50.1057 C.3     1  ZINC001109848453    0.1200
     13 N13        -1.9650    2.3652   48.6860 N.pl3   1  ZINC001109848453   -0.6800
     14 C14        -1.6012    1.1443   48.1425 C.2     1  ZINC001109848453    0.4900
     15 N15        -1.1558    0.1761   48.9196 N.2     1  ZINC001109848453   -0.5300
     16 C16        -0.8013   -1.0069   48.4116 C.2     1  ZINC001109848453    0.1400
     17 C17        -0.8838   -1.2581   47.0887 C.2     1  ZINC001109848453   -0.0500
     18 N18        -1.3388   -0.2903   46.2369 N.pl3   1  ZINC001109848453   -0.1800
     19 N19        -1.5249   -0.2302   44.9661 N.2     1  ZINC001109848453   -0.1000
     20 N20        -1.9793    0.9349   44.6576 N.2     1  ZINC001109848453   -0.0400
     21 N21        -2.0986    1.6576   45.7199 N.2     1  ZINC001109848453   -0.2600
     22 C22        -1.7095    0.9223   46.7494 C.2     1  ZINC001109848453    0.1000
     23 C23        -2.6584    3.7244   52.1516 C.3     1  ZINC001109848453   -0.1800
     24 C24        -1.2688    4.0654   52.6933 C.3     1  ZINC001109848453   -0.1700
     25 C25        -2.3732    5.1242   52.6994 C.3     1  ZINC001109848453   -0.1700
     26 H26        -7.3639    3.9032   50.5069 H       1  ZINC001109848453    0.1300
     27 H27        -6.6767    3.0423   49.1087 H       1  ZINC001109848453    0.1200
     28 H28        -8.3349    2.3622   52.3050 H       1  ZINC001109848453    0.2200
     29 H29        -6.1789   -1.1691   51.5763 H       1  ZINC001109848453    0.2200
     30 H30        -4.2095    2.1114   50.0021 H       1  ZINC001109848453    0.4000
     31 H31        -0.7476    3.1034   50.2261 H       1  ZINC001109848453    0.1000
     32 H32        -1.7509    1.6998   50.6635 H       1  ZINC001109848453    0.0900
     33 H33        -2.3789    3.0411   48.1267 H       1  ZINC001109848453    0.4200
     34 H34        -0.4403   -1.7796   49.0743 H       1  ZINC001109848453    0.2000
     35 H35        -0.5903   -2.2230   46.7026 H       1  ZINC001109848453    0.1900
     36 H36        -3.2861    3.0669   52.7530 H       1  ZINC001109848453    0.1100
     37 H37        -0.9818    3.6320   53.6514 H       1  ZINC001109848453    0.1000
     38 H38        -0.4619    4.1839   51.9702 H       1  ZINC001109848453    0.1000
     39 H39        -2.2929    5.9394   51.9802 H       1  ZINC001109848453    0.1200
     40 H40        -2.8128    5.3875   53.6613 H       1  ZINC001109848453    0.0900
@<TRIPOS>BOND
     1     1     2    2
     2     2     3    1
     3     2     9   am
     4     3     4    1
     5     3    26    1
     6     3    27    1
     7     4     8    1
     8     4     5    1
     9     5     6    2
    10     5    28    1
    11     6     7    1
    12     7     8    2
    13     7    29    1
    14     9    10    1
    15     9    30    1
    16    10    11    1
    17    10    12    1
    18    10    23    1
    19    12    13    1
    20    12    31    1
    21    12    32    1
    22    13    14    1
    23    13    33    1
    24    14    22    1
    25    14    15    2
    26    15    16    1
    27    16    17    2
    28    16    34    1
    29    17    18    1
    30    17    35    1
    31    18    22    1
    32    18    19    1
    33    19    20    2
    34    20    21    1
    35    21    22    2
    36    23    25    1
    37    23    24    1
    38    23    36    1
    39    24    25    1
    40    24    37    1
    41    24    38    1
    42    25    39    1
    43    25    40    1
@<TRIPOS>SUBSTRUCTURE
     1 ZINC001109848453        1 TEMP              0 ****  ****    0 ROOT


##########                                Name:    ZINC000671418508
##########                DOCK_Rotatable_Bonds:                   9
##########                         Heavy_Atoms:                  28
##########                    Molecular_Weight:             405.884
##########                DOCK_Rotatable_Bonds:                   9
##########                       Formal_Charge:         -1.3411e-07
##########                     HBond_Acceptors:                   9
##########                        HBond_Donors:                   2
##########                         Heavy_Atoms:                  28
##########                          Grid_Score:          -37.544437
##########                     Grid_vdw_energy:          -35.704117
##########                      Grid_es_energy:           -1.840319
##########           Internal_energy_repulsive:           16.615408

@<TRIPOS>MOLECULE
ZINC000671418508
 52 54 1 0 0
SMALL
USER_CHARGES


@<TRIPOS>ATOM
      1 C1          0.2129    3.0300   58.0041 C.3     1  ZINC000671418508    0.1000
      2 N2         -1.1742    3.2825   57.6062 N.pl3   1  ZINC000671418508   -0.3700
      3 C3         -1.5779    4.0890   56.6023 C.2     1  ZINC000671418508    0.0800
      4 C4         -2.9299    4.0499   56.5601 C.2     1  ZINC000671418508   -0.2700
      5 C5         -3.8087    4.7997   55.5923 C.3     1  ZINC000671418508    0.2000
      6 N6         -4.1043    3.9459   54.4390 N.am    1  ZINC000671418508   -0.6900
      7 C7         -4.3902    4.5017   53.2449 C.2     1  ZINC000671418508    0.5100
      8 O8         -4.4041    5.7092   53.1254 O.2     1  ZINC000671418508   -0.5100
      9 C9         -4.6899    3.6308   52.0680 C.2     1  ZINC000671418508    0.5100
     10 O10        -5.7191    2.9887   52.0347 O.2     1  ZINC000671418508   -0.5200
     11 N11        -3.8171    3.5585   51.0435 N.am    1  ZINC000671418508   -0.5800
     12 C12        -2.5612    4.3236   51.0663 C.3     1  ZINC000671418508    0.0800
     13 C13        -1.4030    3.3670   50.7635 C.3     1  ZINC000671418508    0.0400
     14 N14        -1.6747    2.6565   49.5068 N.3     1  ZINC000671418508   -0.5200
     15 C15        -0.5135    1.8582   49.0918 C.3     1  ZINC000671418508    0.1300
     16 H16        -0.3096    1.0954   49.8432 H       1  ZINC000671418508    0.0600
     17 C17         0.7067    2.7700   48.9467 C.3     1  ZINC000671418508    0.0900
     18 O18         1.4935    2.7059   50.1379 O.3     1  ZINC000671418508   -0.5500
     19 C19        -0.8057    1.1960   47.7701 C.ar    1  ZINC000671418508   -0.0800
     20 C20        -1.0253    1.9677   46.6443 C.ar    1  ZINC000671418508   -0.0600
     21 C21        -1.2934    1.3609   45.4317 C.ar    1  ZINC000671418508   -0.1200
     22 C22        -1.3419   -0.0191   45.3448 C.ar    1  ZINC000671418508   -0.0300
     23 Cl23       -1.6780   -0.7819   43.8221 Cl      1  ZINC000671418508   -0.0700
     24 C24        -1.1219   -0.7909   46.4718 C.ar    1  ZINC000671418508   -0.1200
     25 C25        -0.8484   -0.1830   47.6826 C.ar    1  ZINC000671418508   -0.1100
     26 C26        -2.8768    1.8194   49.6172 C.3     1  ZINC000671418508    0.0400
     27 C27        -4.0925    2.7077   49.8758 C.3     1  ZINC000671418508    0.1100
     28 C28        -3.3674    3.1902   57.5728 C.2     1  ZINC000671418508    0.0700
     29 N29        -2.3155    2.7249   58.1967 N.2     1  ZINC000671418508   -0.2900
     30 H30         0.6019    2.1786   57.4456 H       1  ZINC000671418508    0.0800
     31 H31         0.8181    3.9113   57.7913 H       1  ZINC000671418508    0.0900
     32 H32         0.2508    2.8122   59.0715 H       1  ZINC000671418508    0.0900
     33 H33        -0.9368    4.6631   55.9498 H       1  ZINC000671418508    0.1800
     34 H34        -4.7395    5.0773   56.0870 H       1  ZINC000671418508    0.0800
     35 H35        -3.2937    5.6994   55.2558 H       1  ZINC000671418508    0.0800
     36 H36        -4.0944    2.9807   54.5348 H       1  ZINC000671418508    0.4100
     37 H37        -2.5962    5.1074   50.3096 H       1  ZINC000671418508    0.0800
     38 H38        -2.4211    4.7680   52.0517 H       1  ZINC000671418508    0.1400
     39 H39        -0.4778    3.9352   50.6675 H       1  ZINC000671418508    0.0900
     40 H40        -1.3049    2.6461   51.5752 H       1  ZINC000671418508    0.0400
     41 H41         1.3060    2.4424   48.0973 H       1  ZINC000671418508    0.0500
     42 H42         0.3763    3.7960   48.7843 H       1  ZINC000671418508    0.0500
     43 H43         1.8460    1.8260   50.3294 H       1  ZINC000671418508    0.3800
     44 H44        -0.9878    3.0449   46.7123 H       1  ZINC000671418508    0.1400
     45 H45        -1.4654    1.9638   44.5524 H       1  ZINC000671418508    0.1300
     46 H46        -1.1600   -1.8681   46.4046 H       1  ZINC000671418508    0.1300
     47 H47        -0.6763   -0.7853   48.5624 H       1  ZINC000671418508    0.1300
     48 H48        -3.0203    1.2650   48.6897 H       1  ZINC000671418508    0.0900
     49 H49        -2.7582    1.1200   50.4448 H       1  ZINC000671418508    0.0400
     50 H50        -4.9657    2.0854   50.0719 H       1  ZINC000671418508    0.1000
     51 H51        -4.2768    3.3384   49.0060 H       1  ZINC000671418508    0.0800
     52 H52        -4.3955    2.9482   57.7978 H       1  ZINC000671418508    0.1900
@<TRIPOS>BOND
     1     1     2    1
     2     1    30    1
     3     1    31    1
     4     1    32    1
     5     2    29    1
     6     2     3    1
     7     3     4    2
     8     3    33    1
     9     4     5    1
    10     4    28    1
    11     5     6    1
    12     5    34    1
    13     5    35    1
    14     6     7   am
    15     6    36    1
    16     7     8    2
    17     7     9    1
    18     9    10    2
    19     9    11   am
    20    11    27    1
    21    11    12    1
    22    12    13    1
    23    12    37    1
    24    12    38    1
    25    13    14    1
    26    13    39    1
    27    13    40    1
    28    14    15    1
    29    14    26    1
    30    15    16    1
    31    15    17    1
    32    15    19    1
    33    17    18    1
    34    17    41    1
    35    17    42    1
    36    18    43    1
    37    19    25   ar
    38    19    20   ar
    39    20    21   ar
    40    20    44    1
    41    21    22   ar
    42    21    45    1
    43    22    23    1
    44    22    24   ar
    45    24    25   ar
    46    24    46    1
    47    25    47    1
    48    26    27    1
    49    26    48    1
    50    26    49    1
    51    27    50    1
    52    27    51    1
    53    28    29    2
    54    28    52    1
@<TRIPOS>SUBSTRUCTURE
     1 ZINC000671418508        1 TEMP              0 ****  ****    0 ROOT


##########                                Name:    ZINC000642096826
##########                DOCK_Rotatable_Bonds:                  12
##########                         Heavy_Atoms:                  25
##########                    Molecular_Weight:             345.485
##########                DOCK_Rotatable_Bonds:                  12
##########                       Formal_Charge:          0.00999919
##########                     HBond_Acceptors:                   5
##########                        HBond_Donors:                   1
##########                         Heavy_Atoms:                  25
##########                          Grid_Score:          -37.526543
##########                     Grid_vdw_energy:          -37.956116
##########                      Grid_es_energy:            0.429572
##########           Internal_energy_repulsive:           25.144873

@<TRIPOS>MOLECULE
ZINC000642096826
 56 57 1 0 0
SMALL
USER_CHARGES


@<TRIPOS>ATOM
      1 C1         -0.3847    0.6535   43.9632 C.3     1  ZINC000642096826   -0.1500
      2 C2         -1.6517    0.6253   44.8204 C.3     1  ZINC000642096826   -0.1400
      3 C3         -1.4220    1.4368   46.0969 C.3     1  ZINC000642096826    0.1200
      4 N4         -1.3353    0.5292   47.2436 N.am    1  ZINC000642096826   -0.6200
      5 C5         -0.5324   -0.6927   47.1514 C.3     1  ZINC000642096826    0.1100
      6 C6          0.6586   -0.5937   48.1068 C.3     1  ZINC000642096826   -0.1400
      7 C7          1.5126    0.6195   47.7333 C.3     1  ZINC000642096826   -0.1500
      8 C8         -1.9941    0.8182   48.3832 C.2     1  ZINC000642096826    0.5200
      9 O9         -1.9210    0.0676   49.3330 O.2     1  ZINC000642096826   -0.5200
     10 C10        -2.8214    2.0744   48.4775 C.3     1  ZINC000642096826    0.0400
     11 N11        -3.3495    2.2117   49.8414 N.3     1  ZINC000642096826   -0.5200
     12 C12        -2.4147    2.9569   50.6952 C.3     1  ZINC000642096826    0.0100
     13 C13        -4.6740    2.8467   49.8317 C.3     1  ZINC000642096826    0.0900
     14 C14        -5.4942    2.3154   50.9789 C.ar    1  ZINC000642096826   -0.0500
     15 C15        -5.4920    2.9794   52.1928 C.ar    1  ZINC000642096826   -0.1000
     16 C16        -6.2401    2.4980   53.2472 C.ar    1  ZINC000642096826   -0.0600
     17 C17        -7.0009    1.3387   53.0871 C.ar    1  ZINC000642096826   -0.1400
     18 C18        -7.8054    0.8175   54.2126 C.2     1  ZINC000642096826    0.5600
     19 O19        -7.6849    1.3012   55.3212 O.2     1  ZINC000642096826   -0.5300
     20 N20        -8.6725   -0.1941   54.0095 N.am    1  ZINC000642096826   -0.7000
     21 C21        -9.4686   -0.7118   55.1251 C.3     1  ZINC000642096826    0.0800
     22 C22       -10.6852    0.1056   55.5642 C.3     1  ZINC000642096826   -0.1900
     23 C23       -10.8801   -1.2130   54.8130 C.3     1  ZINC000642096826   -0.1900
     24 C24        -6.9990    0.6740   51.8599 C.ar    1  ZINC000642096826   -0.0900
     25 C25        -6.2505    1.1689   50.8120 C.ar    1  ZINC000642096826   -0.1200
     26 H26        -0.1465    1.6842   43.7005 H       1  ZINC000642096826    0.0600
     27 H27         0.4434    0.2209   44.5246 H       1  ZINC000642096826    0.0600
     28 H28        -0.5483    0.0753   43.0538 H       1  ZINC000642096826    0.0600
     29 H29        -2.4799    1.0579   44.2589 H       1  ZINC000642096826    0.0600
     30 H30        -1.8899   -0.4054   45.0830 H       1  ZINC000642096826    0.0600
     31 H31        -0.4926    1.9992   46.0076 H       1  ZINC000642096826    0.0800
     32 H32        -2.2523    2.1279   46.2425 H       1  ZINC000642096826    0.0800
     33 H33        -1.1457   -1.5519   47.4231 H       1  ZINC000642096826    0.0800
     34 H34        -0.1701   -0.8133   46.1304 H       1  ZINC000642096826    0.0800
     35 H35         0.2962   -0.4822   49.1287 H       1  ZINC000642096826    0.0700
     36 H36         1.2609   -1.4991   48.0317 H       1  ZINC000642096826    0.0700
     37 H37         2.3610    0.6900   48.4139 H       1  ZINC000642096826    0.0600
     38 H38         1.8750    0.5079   46.7113 H       1  ZINC000642096826    0.0600
     39 H39         0.9103    1.5248   47.8084 H       1  ZINC000642096826    0.0600
     40 H40        -2.1998    2.9375   48.2399 H       1  ZINC000642096826    0.0600
     41 H41        -3.6497    2.0176   47.7713 H       1  ZINC000642096826    0.1000
     42 H42        -2.2573    3.9520   50.2795 H       1  ZINC000642096826    0.0200
     43 H43        -2.8301    3.0439   51.6992 H       1  ZINC000642096826    0.0700
     44 H44        -1.4630    2.4273   50.7406 H       1  ZINC000642096826    0.0900
     45 H45        -4.5604    3.9258   49.9354 H       1  ZINC000642096826    0.0500
     46 H46        -5.1773    2.6230   48.8910 H       1  ZINC000642096826    0.0900
     47 H47        -4.9029    3.8763   52.3153 H       1  ZINC000642096826    0.1300
     48 H48        -6.2370    3.0168   54.1944 H       1  ZINC000642096826    0.1400
     49 H49        -8.7696   -0.5793   53.1246 H       1  ZINC000642096826    0.4000
     50 H50        -8.9081   -1.2360   55.8991 H       1  ZINC000642096826    0.1400
     51 H51       -10.9251    0.1195   56.6272 H       1  ZINC000642096826    0.1000
     52 H52       -10.8932    1.0286   55.0229 H       1  ZINC000642096826    0.1000
     53 H53       -11.2165   -1.1574   53.7777 H       1  ZINC000642096826    0.1000
     54 H54       -11.2484   -2.0667   55.3820 H       1  ZINC000642096826    0.1100
     55 H55        -7.5853   -0.2237   51.7297 H       1  ZINC000642096826    0.1200
     56 H56        -6.2485    0.6557   49.8617 H       1  ZINC000642096826    0.1300
@<TRIPOS>BOND
     1     1     2    1
     2     1    26    1
     3     1    27    1
     4     1    28    1
     5     2     3    1
     6     2    29    1
     7     2    30    1
     8     3     4    1
     9     3    31    1
    10     3    32    1
    11     4     5    1
    12     4     8   am
    13     5     6    1
    14     5    33    1
    15     5    34    1
    16     6     7    1
    17     6    35    1
    18     6    36    1
    19     7    37    1
    20     7    38    1
    21     7    39    1
    22     8     9    2
    23     8    10    1
    24    10    11    1
    25    10    40    1
    26    10    41    1
    27    11    12    1
    28    11    13    1
    29    12    42    1
    30    12    43    1
    31    12    44    1
    32    13    14    1
    33    13    45    1
    34    13    46    1
    35    14    25   ar
    36    14    15   ar
    37    15    16   ar
    38    15    47    1
    39    16    17   ar
    40    16    48    1
    41    17    18    1
    42    17    24   ar
    43    18    19    2
    44    18    20   am
    45    20    21    1
    46    20    49    1
    47    21    23    1
    48    21    22    1
    49    21    50    1
    50    22    23    1
    51    22    51    1
    52    22    52    1
    53    23    53    1
    54    23    54    1
    55    24    25   ar
    56    24    55    1
    57    25    56    1
@<TRIPOS>SUBSTRUCTURE
     1 ZINC000642096826        1 TEMP              0 ****  ****    0 ROOT


##########                                Name:    ZINC000065993627
##########                DOCK_Rotatable_Bonds:                   7
##########                         Heavy_Atoms:                  28
##########                    Molecular_Weight:             382.462
##########                DOCK_Rotatable_Bonds:                   7
##########                       Formal_Charge:          -0.0200002
##########                     HBond_Acceptors:                   7
##########                        HBond_Donors:                   2
##########                         Heavy_Atoms:                  28
##########                          Grid_Score:          -37.451447
##########                     Grid_vdw_energy:          -35.953598
##########                      Grid_es_energy:           -1.497850
##########           Internal_energy_repulsive:           20.827496

@<TRIPOS>MOLECULE
ZINC000065993627
 54 56 1 0 0
SMALL
USER_CHARGES


@<TRIPOS>ATOM
      1 C1         -5.6999    4.8920   50.8248 C.3     1  ZINC000065993627   -0.1200
      2 C2         -6.2260    3.5076   51.1031 C.ar    1  ZINC000065993627   -0.0700
      3 C3         -7.1411    3.3081   52.1173 C.ar    1  ZINC000065993627   -0.1800
      4 C4         -7.6262    2.0320   52.3738 C.ar    1  ZINC000065993627    0.2000
      5 N5         -8.5539    1.8295   53.4014 N.pl3   1  ZINC000065993627   -0.6400
      6 C6         -9.9859    1.7800   53.0962 C.3     1  ZINC000065993627    0.1000
      7 C7         -8.0933    1.6668   54.7826 C.3     1  ZINC000065993627    0.0900
      8 C8         -7.1904    0.9573   51.6101 C.ar    1  ZINC000065993627   -0.1800
      9 C9         -6.2750    1.1575   50.5956 C.ar    1  ZINC000065993627   -0.0800
     10 C10        -5.7947    2.4337   50.3358 C.ar    1  ZINC000065993627    0.1100
     11 N11        -4.8657    2.6367   49.3056 N.am    1  ZINC000065993627   -0.6800
     12 C12        -3.6823    1.9922   49.3288 C.2     1  ZINC000065993627    0.7000
     13 O13        -3.4203    1.2346   50.2431 O.2     1  ZINC000065993627   -0.5700
     14 N14        -2.7892    2.1873   48.3384 N.am    1  ZINC000065993627   -0.7400
     15 C15        -1.5035    1.4853   48.3627 C.3     1  ZINC000065993627    0.2100
     16 H16        -1.5940    0.5822   48.9661 H       1  ZINC000065993627    0.1000
     17 C17        -0.4353    2.3983   48.9680 C.3     1  ZINC000065993627   -0.1600
     18 C18        -1.1079    1.1129   46.9570 C.ar    1  ZINC000065993627   -0.1200
     19 C19         0.2105    0.8121   46.6681 C.ar    1  ZINC000065993627   -0.0800
     20 C20         0.5763    0.4705   45.3808 C.ar    1  ZINC000065993627   -0.1500
     21 C21        -0.3815    0.4292   44.3763 C.ar    1  ZINC000065993627    0.1800
     22 N22        -0.0142    0.0830   43.0710 N.am    1  ZINC000065993627   -0.5700
     23 C23        -0.8459   -0.6697   42.1194 C.3     1  ZINC000065993627    0.0600
     24 C24         0.0343   -0.7652   40.8583 C.3     1  ZINC000065993627    0.0400
     25 O25         1.2569   -0.0639   41.2275 O.3     1  ZINC000065993627   -0.3200
     26 C26         1.1503    0.3879   42.4823 C.2     1  ZINC000065993627    0.6400
     27 O27         2.0324    1.0101   43.0401 O.2     1  ZINC000065993627   -0.5000
     28 C28        -1.7047    0.7318   44.6696 C.ar    1  ZINC000065993627   -0.1500
     29 C29        -2.0651    1.0673   45.9601 C.ar    1  ZINC000065993627   -0.0800
     30 H30        -6.3448    5.3867   50.0986 H       1  ZINC000065993627    0.0700
     31 H31        -5.6856    5.4681   51.7499 H       1  ZINC000065993627    0.0700
     32 H32        -4.6884    4.8226   50.4244 H       1  ZINC000065993627    0.0600
     33 H33        -7.4796    4.1439   52.7115 H       1  ZINC000065993627    0.1200
     34 H34       -10.2758    0.7520   52.8792 H       1  ZINC000065993627    0.0500
     35 H35       -10.5528    2.1443   53.9530 H       1  ZINC000065993627    0.0700
     36 H36       -10.1945    2.4072   52.2294 H       1  ZINC000065993627    0.0700
     37 H37        -7.0151    1.8209   54.8265 H       1  ZINC000065993627    0.0800
     38 H38        -8.5910    2.3975   55.4200 H       1  ZINC000065993627    0.0500
     39 H39        -8.3310    0.6610   55.1288 H       1  ZINC000065993627    0.0500
     40 H40        -7.5671   -0.0350   51.8095 H       1  ZINC000065993627    0.1300
     41 H41        -5.9360    0.3216   50.0015 H       1  ZINC000065993627    0.1500
     42 H42        -5.0747    3.2409   48.5762 H       1  ZINC000065993627    0.4000
     43 H43        -2.9976    2.7925   47.6097 H       1  ZINC000065993627    0.4000
     44 H44        -0.7215    2.6676   49.9848 H       1  ZINC000065993627    0.0700
     45 H45         0.5212    1.8761   48.9861 H       1  ZINC000065993627    0.0700
     46 H46        -0.3448    3.3016   48.3647 H       1  ZINC000065993627    0.0600
     47 H47         0.9551    0.8447   47.4498 H       1  ZINC000065993627    0.1300
     48 H48         1.6061    0.2360   45.1557 H       1  ZINC000065993627    0.1600
     49 H49        -1.0678   -1.6637   42.5076 H       1  ZINC000065993627    0.1000
     50 H50        -1.7666   -0.1276   41.9035 H       1  ZINC000065993627    0.1000
     51 H51         0.2486   -1.8070   40.6198 H       1  ZINC000065993627    0.1100
     52 H52        -0.4500   -0.2712   40.0159 H       1  ZINC000065993627    0.1100
     53 H53        -2.4518    0.7010   43.8904 H       1  ZINC000065993627    0.1300
     54 H54        -3.0940    1.3024   46.1889 H       1  ZINC000065993627    0.1300
@<TRIPOS>BOND
     1     1     2    1
     2     1    30    1
     3     1    31    1
     4     1    32    1
     5     2    10   ar
     6     2     3   ar
     7     3     4   ar
     8     3    33    1
     9     4     5    1
    10     4     8   ar
    11     5     6    1
    12     5     7    1
    13     6    34    1
    14     6    35    1
    15     6    36    1
    16     7    37    1
    17     7    38    1
    18     7    39    1
    19     8     9   ar
    20     8    40    1
    21     9    10   ar
    22     9    41    1
    23    10    11    1
    24    11    12   am
    25    11    42    1
    26    12    13    2
    27    12    14   am
    28    14    15    1
    29    14    43    1
    30    15    16    1
    31    15    17    1
    32    15    18    1
    33    17    44    1
    34    17    45    1
    35    17    46    1
    36    18    29   ar
    37    18    19   ar
    38    19    20   ar
    39    19    47    1
    40    20    21   ar
    41    20    48    1
    42    21    22    1
    43    21    28   ar
    44    22    26   am
    45    22    23    1
    46    23    24    1
    47    23    49    1
    48    23    50    1
    49    24    25    1
    50    24    51    1
    51    24    52    1
    52    25    26    1
    53    26    27    2
    54    28    29   ar
    55    28    53    1
    56    29    54    1
@<TRIPOS>SUBSTRUCTURE
     1 ZINC000065993627        1 TEMP              0 ****  ****    0 ROOT


##########                                Name:    ZINC001105793963
##########                DOCK_Rotatable_Bonds:                   9
##########                         Heavy_Atoms:                  24
##########                    Molecular_Weight:             337.422
##########                DOCK_Rotatable_Bonds:                   9
##########                       Formal_Charge:          -0.0100003
##########                     HBond_Acceptors:                   8
##########                        HBond_Donors:                   2
##########                         Heavy_Atoms:                  24
##########                          Grid_Score:          -37.417496
##########                     Grid_vdw_energy:          -37.260147
##########                      Grid_es_energy:           -0.157348
##########           Internal_energy_repulsive:            9.438553

@<TRIPOS>MOLECULE
ZINC001105793963
 51 52 1 0 0
SMALL
USER_CHARGES


@<TRIPOS>ATOM
      1 C1         -9.2227    0.0405   53.0252 C.3     1  ZINC001105793963   -0.1500
      2 C2         -8.0925    0.9008   53.5941 C.3     1  ZINC001105793963   -0.0300
      3 C3         -7.1654    1.3131   52.4799 C.2     1  ZINC001105793963    0.1800
      4 N4         -6.4428    2.4061   52.4296 N.2     1  ZINC001105793963   -0.4800
      5 C5         -5.7804    2.3487   51.2604 C.2     1  ZINC001105793963    0.1700
      6 C6         -4.8130    3.3762   50.7320 C.3     1  ZINC001105793963    0.1500
      7 N7         -3.5045    2.7471   50.5079 N.3     1  ZINC001105793963   -0.6900
      8 C8         -3.4693    2.0517   49.2143 C.3     1  ZINC001105793963    0.0700
      9 C9         -2.0415    2.0686   48.6649 C.3     1  ZINC001105793963   -0.1000
     10 H10        -1.6163    3.0689   48.7475 H       1  ZINC001105793963    0.1000
     11 C11        -2.0267    1.5990   47.1942 C.3     1  ZINC001105793963    0.1100
     12 N12        -0.7807    0.8078   47.0669 N.am    1  ZINC001105793963   -0.6200
     13 C13         0.0810    0.7836   46.0310 C.2     1  ZINC001105793963    0.5300
     14 O14         1.0649    0.0760   46.0771 O.2     1  ZINC001105793963   -0.5300
     15 C15        -0.1780    1.6359   44.8154 C.3     1  ZINC001105793963    0.1300
     16 H16        -1.2186    1.9600   44.8140 H       1  ZINC001105793963    0.1100
     17 C17         0.7378    2.8611   44.8470 C.3     1  ZINC001105793963   -0.1600
     18 N18         0.0920    0.8554   43.6053 N.am    1  ZINC001105793963   -0.7200
     19 C19        -0.8775    0.0896   43.0670 C.2     1  ZINC001105793963    0.5200
     20 C20        -0.5993   -0.7146   41.8233 C.3     1  ZINC001105793963   -0.1700
     21 O21        -1.9740    0.0476   43.5835 O.2     1  ZINC001105793963   -0.5500
     22 C22        -0.6969    0.0492   48.3368 C.3     1  ZINC001105793963    0.1000
     23 C23        -1.1640    1.0488   49.4201 C.3     1  ZINC001105793963   -0.1000
     24 H24        -1.7507    0.5353   50.1818 H       1  ZINC001105793963    0.0900
     25 C25         0.0408    1.7443   50.0570 C.3     1  ZINC001105793963   -0.1500
     26 N26        -6.1276    1.2442   50.6703 N.2     1  ZINC001105793963   -0.3700
     27 O27        -6.9182    0.6320   51.3571 O.3     1  ZINC001105793963    0.0800
     28 H28        -9.7785    0.6148   52.2839 H       1  ZINC001105793963    0.0600
     29 H29        -8.8016   -0.8482   52.5554 H       1  ZINC001105793963    0.0600
     30 H30        -9.8933   -0.2577   53.8311 H       1  ZINC001105793963    0.0800
     31 H31        -8.5137    1.7895   54.0641 H       1  ZINC001105793963    0.1100
     32 H32        -7.5368    0.3266   54.3355 H       1  ZINC001105793963    0.1000
     33 H33        -5.1885    3.7789   49.7913 H       1  ZINC001105793963    0.1000
     34 H34        -4.7085    4.1836   51.4569 H       1  ZINC001105793963    0.0700
     35 H35        -2.7608    3.4258   50.5738 H       1  ZINC001105793963    0.3500
     36 H36        -3.7954    1.0202   49.3473 H       1  ZINC001105793963    0.0800
     37 H37        -4.1345    2.5554   48.5129 H       1  ZINC001105793963    0.0400
     38 H38        -2.8960    0.9753   46.9857 H       1  ZINC001105793963    0.0700
     39 H39        -2.0029    2.4564   46.5216 H       1  ZINC001105793963    0.0900
     40 H40         0.5506    3.4775   43.9677 H       1  ZINC001105793963    0.0800
     41 H41         0.5370    3.4417   45.7474 H       1  ZINC001105793963    0.0800
     42 H42         1.7785    2.5369   44.8484 H       1  ZINC001105793963    0.0600
     43 H43         0.9687    0.8900   43.1915 H       1  ZINC001105793963    0.4100
     44 H44         0.4311   -0.5508   41.5076 H       1  ZINC001105793963    0.0800
     45 H45        -0.7508   -1.7733   42.0337 H       1  ZINC001105793963    0.1000
     46 H46        -1.2767   -0.4013   41.0289 H       1  ZINC001105793963    0.1000
     47 H47        -1.3586   -0.8166   48.3066 H       1  ZINC001105793963    0.0800
     48 H48         0.3301   -0.2626   48.5261 H       1  ZINC001105793963    0.0900
     49 H49         0.6101    2.2635   49.2859 H       1  ZINC001105793963    0.0600
     50 H50        -0.3054    2.4635   50.7992 H       1  ZINC001105793963    0.0600
     51 H51         0.6760    1.0015   50.5393 H       1  ZINC001105793963    0.0600
@<TRIPOS>BOND
     1     1     2    1
     2     1    28    1
     3     1    29    1
     4     1    30    1
     5     2     3    1
     6     2    31    1
     7     2    32    1
     8     3    27    1
     9     3     4    2
    10     4     5    1
    11     5     6    1
    12     5    26    2
    13     6     7    1
    14     6    33    1
    15     6    34    1
    16     7     8    1
    17     7    35    1
    18     8     9    1
    19     8    36    1
    20     8    37    1
    21     9    10    1
    22     9    23    1
    23     9    11    1
    24    11    12    1
    25    11    38    1
    26    11    39    1
    27    12    13   am
    28    12    22    1
    29    13    14    2
    30    13    15    1
    31    15    16    1
    32    15    17    1
    33    15    18    1
    34    17    40    1
    35    17    41    1
    36    17    42    1
    37    18    19   am
    38    18    43    1
    39    19    20    1
    40    19    21    2
    41    20    44    1
    42    20    45    1
    43    20    46    1
    44    22    23    1
    45    22    47    1
    46    22    48    1
    47    23    24    1
    48    23    25    1
    49    25    49    1
    50    25    50    1
    51    25    51    1
    52    26    27    1
@<TRIPOS>SUBSTRUCTURE
     1 ZINC001105793963        1 TEMP              0 ****  ****    0 ROOT


##########                                Name:    ZINC000918875053
##########                DOCK_Rotatable_Bonds:                   6
##########                         Heavy_Atoms:                  26
##########                    Molecular_Weight:             359.357
##########                DOCK_Rotatable_Bonds:                   6
##########                       Formal_Charge:           0.0200003
##########                     HBond_Acceptors:                   8
##########                        HBond_Donors:                   0
##########                         Heavy_Atoms:                  26
##########                          Grid_Score:          -37.415176
##########                     Grid_vdw_energy:          -37.019855
##########                      Grid_es_energy:           -0.395320
##########           Internal_energy_repulsive:           10.630544

@<TRIPOS>MOLECULE
ZINC000918875053
 44 47 1 0 0
SMALL
USER_CHARGES


@<TRIPOS>ATOM
      1 C1         -3.8880    3.9633   52.3979 C.3     1  ZINC000918875053   -0.1700
      2 C2         -4.1663    3.3033   51.0458 C.3     1  ZINC000918875053    0.1900
      3 H3         -4.5842    4.0408   50.3606 H       1  ZINC000918875053    0.1400
      4 O4         -2.9273    2.7808   50.4980 O.3     1  ZINC000918875053   -0.3400
      5 C5         -2.9374    2.4186   49.2055 C.2     1  ZINC000918875053    0.4800
      6 O6         -3.9462    2.5408   48.5518 O.2     1  ZINC000918875053   -0.4900
      7 C7         -1.6907    1.8593   48.5699 C.3     1  ZINC000918875053   -0.0900
      8 H8         -0.8094    2.4156   48.8891 H       1  ZINC000918875053    0.1400
      9 C9         -1.5377    0.3529   48.8835 C.3     1  ZINC000918875053   -0.1400
     10 C10        -0.9693   -0.2350   47.6108 C.2     1  ZINC000918875053    0.5300
     11 O11        -0.4440   -1.3248   47.5230 O.2     1  ZINC000918875053   -0.5000
     12 N12        -1.1313    0.6257   46.5912 N.am    1  ZINC000918875053   -0.5800
     13 C13        -0.7054    0.3855   45.2789 C.ar    1  ZINC000918875053    0.1000
     14 C14        -1.5463   -0.2574   44.3815 C.ar    1  ZINC000918875053   -0.0800
     15 C15        -1.1236   -0.4928   43.0871 C.ar    1  ZINC000918875053   -0.1200
     16 C16         0.1358   -0.0892   42.6845 C.ar    1  ZINC000918875053   -0.0800
     17 C17         0.9777    0.5519   43.5752 C.ar    1  ZINC000918875053   -0.1500
     18 C18         0.5592    0.7959   44.8703 C.ar    1  ZINC000918875053    0.1100
     19 F19         1.3812    1.4225   45.7402 F       1  ZINC000918875053   -0.1300
     20 C20        -1.8115    1.8508   47.0299 C.3     1  ZINC000918875053    0.1200
     21 C21        -5.1489    2.1756   51.2302 C.2     1  ZINC000918875053    0.1800
     22 N22        -6.1206    2.1222   52.1090 N.2     1  ZINC000918875053   -0.4600
     23 C23        -6.7286    0.9399   51.9054 C.2     1  ZINC000918875053    0.2100
     24 C24        -7.9132    0.4033   52.6668 C.3     1  ZINC000918875053   -0.0900
     25 C25        -7.9622    0.6653   54.1734 C.3     1  ZINC000918875053   -0.1600
     26 C26        -8.9068    1.4188   53.2347 C.3     1  ZINC000918875053   -0.1500
     27 N27        -6.1070    0.3456   50.9312 N.2     1  ZINC000918875053   -0.3700
     28 O28        -5.1999    1.0412   50.5255 O.3     1  ZINC000918875053    0.1000
     29 H29        -3.1773    4.7789   52.2646 H       1  ZINC000918875053    0.0900
     30 H30        -4.8181    4.3553   52.8091 H       1  ZINC000918875053    0.0900
     31 H31        -3.4702    3.2257   53.0831 H       1  ZINC000918875053    0.0800
     32 H32        -0.8476    0.2043   49.7139 H       1  ZINC000918875053    0.1300
     33 H33        -2.5078   -0.0904   49.1084 H       1  ZINC000918875053    0.1100
     34 H34        -2.5303   -0.5740   44.6946 H       1  ZINC000918875053    0.1400
     35 H35        -1.7782   -0.9932   42.3888 H       1  ZINC000918875053    0.1400
     36 H36         0.4633   -0.2753   41.6724 H       1  ZINC000918875053    0.1400
     37 H37         1.9610    0.8659   43.2576 H       1  ZINC000918875053    0.1400
     38 H38        -2.8604    1.8264   46.7344 H       1  ZINC000918875053    0.1000
     39 H39        -1.3201    2.7271   46.6071 H       1  ZINC000918875053    0.1000
     40 H40        -8.3127   -0.5449   52.3072 H       1  ZINC000918875053    0.1400
     41 H41        -8.3940   -0.1107   54.8054 H       1  ZINC000918875053    0.1100
     42 H42        -7.1377    1.2258   54.6138 H       1  ZINC000918875053    0.1000
     43 H43        -8.7036    2.4749   53.0576 H       1  ZINC000918875053    0.1000
     44 H44        -9.9600    1.1383   53.2492 H       1  ZINC000918875053    0.1100
@<TRIPOS>BOND
     1     1     2    1
     2     1    29    1
     3     1    30    1
     4     1    31    1
     5     2     3    1
     6     2     4    1
     7     2    21    1
     8     4     5    1
     9     5     6    2
    10     5     7    1
    11     7     8    1
    12     7    20    1
    13     7     9    1
    14     9    10    1
    15     9    32    1
    16     9    33    1
    17    10    11    2
    18    10    12   am
    19    12    13    1
    20    12    20    1
    21    13    18   ar
    22    13    14   ar
    23    14    15   ar
    24    14    34    1
    25    15    16   ar
    26    15    35    1
    27    16    17   ar
    28    16    36    1
    29    17    18   ar
    30    17    37    1
    31    18    19    1
    32    20    38    1
    33    20    39    1
    34    21    28    1
    35    21    22    2
    36    22    23    1
    37    23    24    1
    38    23    27    2
    39    24    26    1
    40    24    25    1
    41    24    40    1
    42    25    26    1
    43    25    41    1
    44    25    42    1
    45    26    43    1
    46    26    44    1
    47    27    28    1
@<TRIPOS>SUBSTRUCTURE
     1 ZINC000918875053        1 TEMP              0 ****  ****    0 ROOT


##########                                Name:    ZINC000767361237
##########                DOCK_Rotatable_Bonds:                  10
##########                         Heavy_Atoms:                  30
##########                    Molecular_Weight:             409.439
##########                DOCK_Rotatable_Bonds:                  10
##########                       Formal_Charge:          -0.0300005
##########                     HBond_Acceptors:                   7
##########                        HBond_Donors:                   1
##########                         Heavy_Atoms:                  30
##########                          Grid_Score:          -37.369987
##########                     Grid_vdw_energy:          -36.788536
##########                      Grid_es_energy:           -0.581450
##########           Internal_energy_repulsive:           13.055209

@<TRIPOS>MOLECULE
ZINC000767361237
 53 55 1 0 0
SMALL
USER_CHARGES


@<TRIPOS>ATOM
      1 C1         -1.1125   -0.5099   42.5445 C.3     1  ZINC000767361237   -0.1200
      2 C2         -1.0389   -0.0846   43.9884 C.ar    1  ZINC000767361237   -0.0900
      3 C3         -1.5522   -0.9031   44.9771 C.ar    1  ZINC000767361237   -0.1200
      4 C4         -1.4847   -0.5130   46.3015 C.ar    1  ZINC000767361237   -0.1100
      5 C5         -0.9037    0.6956   46.6373 C.ar    1  ZINC000767361237   -0.0800
      6 C6         -0.8306    1.1210   48.0811 C.3     1  ZINC000767361237   -0.0800
      7 H7         -0.2776    2.0573   48.1564 H       1  ZINC000767361237    0.0900
      8 C8         -0.1170    0.0403   48.8957 C.3     1  ZINC000767361237   -0.1500
      9 C9         -2.2462    1.3196   48.6266 C.3     1  ZINC000767361237    0.1300
     10 H10        -2.6352    0.3659   48.9833 H       1  ZINC000767361237    0.1400
     11 O11        -3.0908    1.8204   47.5885 O.3     1  ZINC000767361237   -0.5200
     12 C12        -2.2117    2.3057   49.7658 C.2     1  ZINC000767361237    0.4300
     13 O13        -1.2220    2.9713   49.9589 O.2     1  ZINC000767361237   -0.5000
     14 O14        -3.2806    2.4445   50.5658 O.3     1  ZINC000767361237   -0.3300
     15 C15        -3.3875    3.6845   51.3138 C.3     1  ZINC000767361237    0.0100
     16 C16        -4.8212    4.1487   51.3145 C.2     1  ZINC000767361237    0.3700
     17 O17        -5.0744    5.3268   51.2345 O.2     1  ZINC000767361237   -0.4200
     18 C18        -5.9389    3.1428   51.4150 C.3     1  ZINC000767361237   -0.1800
     19 C19        -5.8779    2.4472   52.7764 C.3     1  ZINC000767361237    0.1200
     20 N20        -7.1943    1.8919   53.1004 N.am    1  ZINC000767361237   -0.5800
     21 C21        -8.1912    2.5851   53.6794 C.2     1  ZINC000767361237    0.5700
     22 O22        -8.1434    3.7524   54.0112 O.2     1  ZINC000767361237   -0.4600
     23 C23        -9.3550    1.6885   53.8433 C.ar    1  ZINC000767361237   -0.1400
     24 C24       -10.6293    1.8427   54.3642 C.ar    1  ZINC000767361237   -0.0400
     25 C25       -11.5051    0.7677   54.3679 C.ar    1  ZINC000767361237   -0.0900
     26 C26       -11.1152   -0.4551   53.8558 C.ar    1  ZINC000767361237   -0.0900
     27 C27        -9.8429   -0.6242   53.3313 C.ar    1  ZINC000767361237   -0.0400
     28 C28        -8.9572    0.4409   53.3210 C.ar    1  ZINC000767361237   -0.1400
     29 C29        -7.5671    0.6233   52.8528 C.2     1  ZINC000767361237    0.5700
     30 O30        -6.8763   -0.2300   52.3333 O.2     1  ZINC000767361237   -0.4600
     31 C31        -0.3893    1.5135   45.6488 C.ar    1  ZINC000767361237   -0.1100
     32 C32        -0.4532    1.1216   44.3247 C.ar    1  ZINC000767361237   -0.1200
     33 H33        -0.2196   -1.0800   42.2878 H       1  ZINC000767361237    0.0700
     34 H34        -1.9958   -1.1304   42.3930 H       1  ZINC000767361237    0.0700
     35 H35        -1.1751    0.3730   41.9084 H       1  ZINC000767361237    0.0700
     36 H36        -2.0061   -1.8474   44.7147 H       1  ZINC000767361237    0.1200
     37 H37        -1.8863   -1.1523   47.0738 H       1  ZINC000767361237    0.1200
     38 H38        -0.0641    0.3480   49.9401 H       1  ZINC000767361237    0.0800
     39 H39        -0.6702   -0.8960   48.8204 H       1  ZINC000767361237    0.0700
     40 H40         0.8915   -0.1013   48.5071 H       1  ZINC000767361237    0.0600
     41 H41        -3.3081    1.1676   46.9090 H       1  ZINC000767361237    0.3900
     42 H42        -3.0585    3.5194   52.3398 H       1  ZINC000767361237    0.1100
     43 H43        -2.7597    4.4445   50.8488 H       1  ZINC000767361237    0.1100
     44 H44        -6.8967    3.6523   51.3100 H       1  ZINC000767361237    0.1100
     45 H45        -5.8328    2.4014   50.6231 H       1  ZINC000767361237    0.1100
     46 H46        -5.1431    1.6430   52.7409 H       1  ZINC000767361237    0.1100
     47 H47        -5.5900    3.1690   53.5407 H       1  ZINC000767361237    0.1100
     48 H48       -10.9392    2.7961   54.7659 H       1  ZINC000767361237    0.1400
     49 H49       -12.4986    0.8869   54.7740 H       1  ZINC000767361237    0.1400
     50 H50       -11.8062   -1.2851   53.8646 H       1  ZINC000767361237    0.1400
     51 H51        -9.5438   -1.5821   52.9321 H       1  ZINC000767361237    0.1400
     52 H52         0.0650    2.4575   45.9112 H       1  ZINC000767361237    0.1200
     53 H53        -0.0514    1.7606   43.5523 H       1  ZINC000767361237    0.1200
@<TRIPOS>BOND
     1     1     2    1
     2     1    33    1
     3     1    34    1
     4     1    35    1
     5     2    32   ar
     6     2     3   ar
     7     3     4   ar
     8     3    36    1
     9     4     5   ar
    10     4    37    1
    11     5     6    1
    12     5    31   ar
    13     6     7    1
    14     6     8    1
    15     6     9    1
    16     8    38    1
    17     8    39    1
    18     8    40    1
    19     9    10    1
    20     9    11    1
    21     9    12    1
    22    11    41    1
    23    12    13    2
    24    12    14    1
    25    14    15    1
    26    15    16    1
    27    15    42    1
    28    15    43    1
    29    16    17    2
    30    16    18    1
    31    18    19    1
    32    18    44    1
    33    18    45    1
    34    19    20    1
    35    19    46    1
    36    19    47    1
    37    20    29   am
    38    20    21   am
    39    21    22    2
    40    21    23    1
    41    23    28   ar
    42    23    24   ar
    43    24    25   ar
    44    24    48    1
    45    25    26   ar
    46    25    49    1
    47    26    27   ar
    48    26    50    1
    49    27    28   ar
    50    27    51    1
    51    28    29    1
    52    29    30    2
    53    31    32   ar
    54    31    52    1
    55    32    53    1
@<TRIPOS>SUBSTRUCTURE
     1 ZINC000767361237        1 TEMP              0 ****  ****    0 ROOT


##########                                Name:    ZINC000482540246
##########                DOCK_Rotatable_Bonds:                  10
##########                         Heavy_Atoms:                  30
##########                    Molecular_Weight:              409.46
##########                DOCK_Rotatable_Bonds:                  10
##########                       Formal_Charge:         2.83122e-07
##########                     HBond_Acceptors:                   7
##########                        HBond_Donors:                   2
##########                         Heavy_Atoms:                  30
##########                          Grid_Score:          -37.325996
##########                     Grid_vdw_energy:          -36.928635
##########                      Grid_es_energy:           -0.397363
##########           Internal_energy_repulsive:           10.871736

@<TRIPOS>MOLECULE
ZINC000482540246
 54 56 1 0 0
SMALL
USER_CHARGES


@<TRIPOS>ATOM
      1 C1         -9.3907   -1.0982   54.2799 C.3     1  ZINC000482540246    0.0400
      2 O2         -8.6871   -0.6301   53.1275 O.3     1  ZINC000482540246   -0.3100
      3 C3         -7.8524    0.4252   53.3020 C.ar    1  ZINC000482540246    0.3300
      4 C4         -7.1571    0.9392   52.2152 C.ar    1  ZINC000482540246   -0.1800
      5 C5         -6.3086    2.0159   52.4066 C.ar    1  ZINC000482540246   -0.0100
      6 C6         -5.5366    2.6033   51.2533 C.3     1  ZINC000482540246    0.2000
      7 H7         -5.0270    3.5093   51.5810 H       1  ZINC000482540246    0.1000
      8 C8         -6.5007    2.9437   50.1150 C.3     1  ZINC000482540246   -0.1600
      9 N9         -4.5482    1.6304   50.7815 N.am    1  ZINC000482540246   -0.7400
     10 C10        -3.5381    2.0290   49.9832 C.2     1  ZINC000482540246    0.7100
     11 O11        -3.4482    3.1959   49.6532 O.2     1  ZINC000482540246   -0.5800
     12 N12        -2.6278    1.1343   49.5504 N.am    1  ZINC000482540246   -0.7400
     13 C13        -1.5289    1.5680   48.6840 C.3     1  ZINC000482540246    0.2100
     14 H14        -1.7767    2.5308   48.2371 H       1  ZINC000482540246    0.1200
     15 C15        -1.3123    0.5330   47.5782 C.3     1  ZINC000482540246    0.0500
     16 O16        -1.7075    1.0880   46.3221 O.3     1  ZINC000482540246   -0.3000
     17 C17        -0.8545    0.9192   45.2770 C.ar    1  ZINC000482540246    0.1000
     18 C18         0.4302    1.4360   45.3388 C.ar    1  ZINC000482540246   -0.1800
     19 C19         1.2960    1.2628   44.2754 C.ar    1  ZINC000482540246   -0.0900
     20 C20         0.8828    0.5748   43.1501 C.ar    1  ZINC000482540246   -0.1300
     21 C21        -0.3984    0.0579   43.0840 C.ar    1  ZINC000482540246   -0.1200
     22 C22        -1.2669    0.2233   44.1473 C.ar    1  ZINC000482540246    0.0700
     23 F23        -2.5185   -0.2815   44.0833 F       1  ZINC000482540246   -0.1300
     24 C24        -0.2690    1.7025   49.4999 C.ar    1  ZINC000482540246   -0.1000
     25 C25         0.2327    0.6097   50.1819 C.ar    1  ZINC000482540246   -0.0800
     26 C26         1.3883    0.7330   50.9304 C.ar    1  ZINC000482540246   -0.1200
     27 C27         2.0426    1.9490   50.9965 C.ar    1  ZINC000482540246   -0.1200
     28 C28         1.5414    3.0414   50.3138 C.ar    1  ZINC000482540246   -0.1200
     29 C29         0.3881    2.9170   49.5618 C.ar    1  ZINC000482540246   -0.1000
     30 C30        -6.1854    2.5424   53.6847 C.ar    1  ZINC000482540246   -0.2100
     31 C31        -6.9073    1.9808   54.7193 C.ar    1  ZINC000482540246    0.1500
     32 N32        -7.7125    0.9580   54.5046 N.ar    1  ZINC000482540246   -0.5400
     33 H33       -10.0214   -1.9428   54.0024 H       1  ZINC000482540246    0.1000
     34 H34        -8.6750   -1.4134   55.0393 H       1  ZINC000482540246    0.0600
     35 H35       -10.0121   -0.2957   54.6771 H       1  ZINC000482540246    0.0600
     36 H36        -7.2767    0.5043   51.2338 H       1  ZINC000482540246    0.1500
     37 H37        -7.0103    2.0377   49.7873 H       1  ZINC000482540246    0.0600
     38 H38        -7.2361    3.6675   50.4660 H       1  ZINC000482540246    0.0700
     39 H39        -5.9423    3.3685   49.2808 H       1  ZINC000482540246    0.0700
     40 H40        -4.6206    0.6993   51.0437 H       1  ZINC000482540246    0.4000
     41 H41        -2.7001    0.2033   49.8126 H       1  ZINC000482540246    0.4000
     42 H42        -0.2580    0.2588   47.5388 H       1  ZINC000482540246    0.0800
     43 H43        -1.9107   -0.3535   47.7881 H       1  ZINC000482540246    0.0800
     44 H44         0.7544    1.9741   46.2173 H       1  ZINC000482540246    0.1400
     45 H45         2.2968    1.6659   44.3236 H       1  ZINC000482540246    0.1300
     46 H46         1.5613    0.4411   42.3207 H       1  ZINC000482540246    0.1400
     47 H47        -0.7191   -0.4789   42.2034 H       1  ZINC000482540246    0.1400
     48 H48        -0.2785   -0.3403   50.1303 H       1  ZINC000482540246    0.1200
     49 H49         1.7799   -0.1206   51.4638 H       1  ZINC000482540246    0.1200
     50 H50         2.9451    2.0454   51.5817 H       1  ZINC000482540246    0.1200
     51 H51         2.0523    3.9915   50.3656 H       1  ZINC000482540246    0.1200
     52 H52        -0.0035    3.7706   49.0284 H       1  ZINC000482540246    0.1200
     53 H53        -5.5316    3.3822   53.8683 H       1  ZINC000482540246    0.1400
     54 H54        -6.8151    2.3868   55.7157 H       1  ZINC000482540246    0.1600
@<TRIPOS>BOND
     1     1     2    1
     2     1    33    1
     3     1    34    1
     4     1    35    1
     5     2     3    1
     6     3    32   ar
     7     3     4   ar
     8     4     5   ar
     9     4    36    1
    10     5     6    1
    11     5    30   ar
    12     6     7    1
    13     6     8    1
    14     6     9    1
    15     8    37    1
    16     8    38    1
    17     8    39    1
    18     9    10   am
    19     9    40    1
    20    10    11    2
    21    10    12   am
    22    12    13    1
    23    12    41    1
    24    13    14    1
    25    13    15    1
    26    13    24    1
    27    15    16    1
    28    15    42    1
    29    15    43    1
    30    16    17    1
    31    17    22   ar
    32    17    18   ar
    33    18    19   ar
    34    18    44    1
    35    19    20   ar
    36    19    45    1
    37    20    21   ar
    38    20    46    1
    39    21    22   ar
    40    21    47    1
    41    22    23    1
    42    24    29   ar
    43    24    25   ar
    44    25    26   ar
    45    25    48    1
    46    26    27   ar
    47    26    49    1
    48    27    28   ar
    49    27    50    1
    50    28    29   ar
    51    28    51    1
    52    29    52    1
    53    30    31   ar
    54    30    53    1
    55    31    32   ar
    56    31    54    1
@<TRIPOS>SUBSTRUCTURE
     1 ZINC000482540246        1 TEMP              0 ****  ****    0 ROOT


##########                                Name:    ZINC000435005159
##########                DOCK_Rotatable_Bonds:                  12
##########                         Heavy_Atoms:                  30
##########                    Molecular_Weight:             401.508
##########                DOCK_Rotatable_Bonds:                  12
##########                       Formal_Charge:          -0.0399985
##########                     HBond_Acceptors:                   5
##########                        HBond_Donors:                   2
##########                         Heavy_Atoms:                  30
##########                          Grid_Score:          -37.265224
##########                     Grid_vdw_energy:          -38.372993
##########                      Grid_es_energy:            1.107771
##########           Internal_energy_repulsive:           10.413672

@<TRIPOS>MOLECULE
ZINC000435005159
 57 59 1 0 0
SMALL
USER_CHARGES


@<TRIPOS>ATOM
      1 O1         -2.6668    1.8363   46.4066 O.2     1  ZINC000435005159   -0.5300
      2 C2         -1.7916    1.0271   46.6309 C.2     1  ZINC000435005159    0.5200
      3 C3         -1.4764   -0.0423   45.6170 C.3     1  ZINC000435005159   -0.1400
      4 C4         -1.9827    0.3943   44.2409 C.3     1  ZINC000435005159   -0.1200
      5 C5         -1.3401   -0.4779   43.1606 C.3     1  ZINC000435005159    0.1200
      6 N6          0.0584   -0.0804   42.9801 N.am    1  ZINC000435005159   -0.7200
      7 C7          0.6396   -0.1916   41.7692 C.2     1  ZINC000435005159    0.5600
      8 O8          0.0039   -0.6229   40.8271 O.2     1  ZINC000435005159   -0.5300
      9 C9          2.0503    0.2111   41.5865 C.ar    1  ZINC000435005159   -0.1900
     10 C10         2.6636    0.1071   40.3325 C.ar    1  ZINC000435005159   -0.0200
     11 C11         3.9861    0.4978   40.2146 C.ar    1  ZINC000435005159   -0.1800
     12 C12         4.6532    0.9739   41.3287 C.ar    1  ZINC000435005159    0.1200
     13 N13         4.0494    1.0605   42.4989 N.ar    1  ZINC000435005159   -0.4900
     14 C14         2.7914    0.7069   42.6602 C.ar    1  ZINC000435005159    0.1400
     15 N15        -1.0971    1.0878   47.7844 N.am    1  ZINC000435005159   -0.7300
     16 C16        -1.4036    2.1275   48.7699 C.3     1  ZINC000435005159    0.1900
     17 H17        -1.7224    3.0338   48.2550 H       1  ZINC000435005159    0.1000
     18 C18        -2.5254    1.6428   49.6905 C.3     1  ZINC000435005159   -0.1200
     19 C19        -3.7736    2.4990   49.4679 C.3     1  ZINC000435005159   -0.0800
     20 C20        -4.7165    2.3245   50.6305 C.ar    1  ZINC000435005159   -0.0800
     21 C21        -4.5950    3.1316   51.7462 C.ar    1  ZINC000435005159   -0.1200
     22 C22        -5.4599    2.9716   52.8126 C.ar    1  ZINC000435005159   -0.1200
     23 C23        -6.4466    2.0047   52.7631 C.ar    1  ZINC000435005159   -0.1200
     24 C24        -6.5687    1.1982   51.6471 C.ar    1  ZINC000435005159   -0.1200
     25 C25        -5.7065    1.3611   50.5789 C.ar    1  ZINC000435005159   -0.1200
     26 C26        -0.1733    2.4216   49.5891 C.ar    1  ZINC000435005159   -0.1000
     27 C27         0.2552    3.7261   49.7486 C.ar    1  ZINC000435005159   -0.1100
     28 C28         1.3837    3.9959   50.5000 C.ar    1  ZINC000435005159   -0.1200
     29 C29         2.0834    2.9612   51.0924 C.ar    1  ZINC000435005159   -0.1200
     30 C30         1.6543    1.6568   50.9335 C.ar    1  ZINC000435005159   -0.1200
     31 C31         0.5234    1.3874   50.1857 C.ar    1  ZINC000435005159   -0.1000
     32 H32        -0.3981   -0.1969   45.5751 H       1  ZINC000435005159    0.1000
     33 H33        -1.9657   -0.9725   45.9059 H       1  ZINC000435005159    0.1000
     34 H34        -3.0663    0.2835   44.2005 H       1  ZINC000435005159    0.0800
     35 H35        -1.7178    1.4378   44.0705 H       1  ZINC000435005159    0.0800
     36 H36        -1.3842   -1.5238   43.4642 H       1  ZINC000435005159    0.0700
     37 H37        -1.8784   -0.3490   42.2216 H       1  ZINC000435005159    0.0700
     38 H38         0.5661    0.2626   43.7321 H       1  ZINC000435005159    0.4000
     39 H39         2.1189   -0.2688   39.4789 H       1  ZINC000435005159    0.1500
     40 H40         4.4919    0.4312   39.2628 H       1  ZINC000435005159    0.1500
     41 H41         5.6851    1.2796   41.2396 H       1  ZINC000435005159    0.1600
     42 H42         2.3319    0.7926   43.6337 H       1  ZINC000435005159    0.1600
     43 H43        -0.3945    0.4431   47.9620 H       1  ZINC000435005159    0.4000
     44 H44        -2.7547    0.6010   49.4663 H       1  ZINC000435005159    0.0700
     45 H45        -2.2060    1.7291   50.7291 H       1  ZINC000435005159    0.0800
     46 H46        -3.4857    3.5472   49.3878 H       1  ZINC000435005159    0.0700
     47 H47        -4.2690    2.1870   48.5484 H       1  ZINC000435005159    0.0700
     48 H48        -3.8240    3.8870   51.7848 H       1  ZINC000435005159    0.1200
     49 H49        -5.3645    3.6016   53.6845 H       1  ZINC000435005159    0.1200
     50 H50        -7.1219    1.8793   53.5966 H       1  ZINC000435005159    0.1200
     51 H51        -7.3394    0.4426   51.6085 H       1  ZINC000435005159    0.1200
     52 H52        -5.8019    0.7310   49.7070 H       1  ZINC000435005159    0.1200
     53 H53        -0.2914    4.5345   49.2859 H       1  ZINC000435005159    0.1200
     54 H54         1.7190    5.0150   50.6240 H       1  ZINC000435005159    0.1200
     55 H55         2.9654    3.1719   51.6788 H       1  ZINC000435005159    0.1200
     56 H56         2.2011    0.8483   51.3960 H       1  ZINC000435005159    0.1200
     57 H57         0.1881    0.3682   50.0617 H       1  ZINC000435005159    0.1200
@<TRIPOS>BOND
     1     1     2    2
     2     2     3    1
     3     2    15   am
     4     3     4    1
     5     3    32    1
     6     3    33    1
     7     4     5    1
     8     4    34    1
     9     4    35    1
    10     5     6    1
    11     5    36    1
    12     5    37    1
    13     6     7   am
    14     6    38    1
    15     7     8    2
    16     7     9    1
    17     9    14   ar
    18     9    10   ar
    19    10    11   ar
    20    10    39    1
    21    11    12   ar
    22    11    40    1
    23    12    13   ar
    24    12    41    1
    25    13    14   ar
    26    14    42    1
    27    15    16    1
    28    15    43    1
    29    16    17    1
    30    16    18    1
    31    16    26    1
    32    18    19    1
    33    18    44    1
    34    18    45    1
    35    19    20    1
    36    19    46    1
    37    19    47    1
    38    20    25   ar
    39    20    21   ar
    40    21    22   ar
    41    21    48    1
    42    22    23   ar
    43    22    49    1
    44    23    24   ar
    45    23    50    1
    46    24    25   ar
    47    24    51    1
    48    25    52    1
    49    26    31   ar
    50    26    27   ar
    51    27    28   ar
    52    27    53    1
    53    28    29   ar
    54    28    54    1
    55    29    30   ar
    56    29    55    1
    57    30    31   ar
    58    30    56    1
    59    31    57    1
@<TRIPOS>SUBSTRUCTURE
     1 ZINC000435005159        1 TEMP              0 ****  ****    0 ROOT


##########                                Name:    ZINC000624498741
##########                DOCK_Rotatable_Bonds:                   7
##########                         Heavy_Atoms:                  27
##########                    Molecular_Weight:             379.339
##########                DOCK_Rotatable_Bonds:                   7
##########                       Formal_Charge:           0.0300003
##########                     HBond_Acceptors:                   9
##########                        HBond_Donors:                   0
##########                         Heavy_Atoms:                  27
##########                          Grid_Score:          -37.261356
##########                     Grid_vdw_energy:          -35.384567
##########                      Grid_es_energy:           -1.876789
##########           Internal_energy_repulsive:           14.198840

@<TRIPOS>MOLECULE
ZINC000624498741
 43 45 1 0 0
SMALL
USER_CHARGES


@<TRIPOS>ATOM
      1 C1         -7.5226    2.0608   54.8346 C.3     1  ZINC000624498741   -0.1100
      2 C2         -7.1830    1.3743   53.5367 C.ar    1  ZINC000624498741   -0.0900
      3 C3         -6.2337    1.9173   52.6993 C.ar    1  ZINC000624498741   -0.0400
      4 C4         -5.9193    1.2799   51.4965 C.ar    1  ZINC000624498741   -0.0500
      5 C5         -4.9019    1.8582   50.5961 C.2     1  ZINC000624498741    0.2300
      6 N6         -3.8267    1.2500   50.1252 N.2     1  ZINC000624498741   -0.4700
      7 C7         -3.2072    2.1590   49.3564 C.2     1  ZINC000624498741    0.1800
      8 C8         -1.9263    1.9515   48.5903 C.3     1  ZINC000624498741   -0.0300
      9 C9         -1.2521    0.6622   49.0636 C.3     1  ZINC000624498741   -0.1300
     10 C10        -0.1367    0.2820   48.0878 C.3     1  ZINC000624498741    0.0900
     11 N11        -0.7053    0.0705   46.7543 N.am    1  ZINC000624498741   -0.5000
     12 C12        -1.3336   -1.0989   46.4704 C.2     1  ZINC000624498741    0.1300
     13 C13        -1.8666   -1.3175   45.2456 C.2     1  ZINC000624498741   -0.2300
     14 C14        -1.7725   -0.3299   44.2550 C.2     1  ZINC000624498741   -0.0200
     15 C15        -1.1411    0.8446   44.5423 C.2     1  ZINC000624498741   -0.2400
     16 C16        -0.6036    1.0405   45.8259 C.2     1  ZINC000624498741    0.5100
     17 O17        -0.0361    2.0868   46.0964 O.2     1  ZINC000624498741   -0.5500
     18 N18        -3.9126    3.2510   49.3915 N.2     1  ZINC000624498741   -0.3700
     19 O19        -4.8917    3.1021   50.0915 O.3     1  ZINC000624498741    0.0900
     20 C20        -6.5696    0.0938   51.1482 C.ar    1  ZINC000624498741   -0.0200
     21 C21        -7.5179   -0.4428   51.9914 C.ar    1  ZINC000624498741   -0.1900
     22 C22        -7.8239    0.1914   53.1891 C.ar    1  ZINC000624498741    0.1300
     23 O23        -8.7591   -0.3406   54.0172 O.3     1  ZINC000624498741   -0.3000
     24 C24       -10.1155   -0.3106   53.5683 C.3     1  ZINC000624498741    0.6000
     25 F25       -10.9715   -0.2638   54.6738 F       1  ZINC000624498741   -0.1600
     26 F26       -10.3186    0.8222   52.7729 F       1  ZINC000624498741   -0.1300
     27 F27       -10.3842   -1.4609   52.8188 F       1  ZINC000624498741   -0.1600
     28 H28        -6.8700    1.6883   55.6242 H       1  ZINC000624498741    0.0800
     29 H29        -7.3823    3.1362   54.7244 H       1  ZINC000624498741    0.0800
     30 H30        -8.5610    1.8545   55.0939 H       1  ZINC000624498741    0.0800
     31 H31        -5.7334    2.8347   52.9719 H       1  ZINC000624498741    0.1500
     32 H32        -2.1478    1.8759   47.5257 H       1  ZINC000624498741    0.1000
     33 H33        -1.2585    2.7954   48.7634 H       1  ZINC000624498741    0.1000
     34 H34        -0.8293    0.8166   50.0564 H       1  ZINC000624498741    0.0800
     35 H35        -1.9891   -0.1399   49.1032 H       1  ZINC000624498741    0.0800
     36 H36         0.5989    1.0853   48.0460 H       1  ZINC000624498741    0.1100
     37 H37         0.3456   -0.6350   48.4267 H       1  ZINC000624498741    0.1000
     38 H38        -1.4090   -1.8631   47.2299 H       1  ZINC000624498741    0.1600
     39 H39        -2.3634   -2.2522   45.0313 H       1  ZINC000624498741    0.1500
     40 H40        -2.1949   -0.4972   43.2753 H       1  ZINC000624498741    0.1400
     41 H41        -1.0587    1.6174   43.7924 H       1  ZINC000624498741    0.1500
     42 H42        -6.3296   -0.4017   50.2191 H       1  ZINC000624498741    0.1500
     43 H43        -8.0215   -1.3597   51.7227 H       1  ZINC000624498741    0.1500
@<TRIPOS>BOND
     1     1     2    1
     2     1    28    1
     3     1    29    1
     4     1    30    1
     5     2    22   ar
     6     2     3   ar
     7     3     4   ar
     8     3    31    1
     9     4     5    1
    10     4    20   ar
    11     5    19    1
    12     5     6    2
    13     6     7    1
    14     7     8    1
    15     7    18    2
    16     8     9    1
    17     8    32    1
    18     8    33    1
    19     9    10    1
    20     9    34    1
    21     9    35    1
    22    10    11    1
    23    10    36    1
    24    10    37    1
    25    11    16   am
    26    11    12    1
    27    12    13    2
    28    12    38    1
    29    13    14    1
    30    13    39    1
    31    14    15    2
    32    14    40    1
    33    15    16    1
    34    15    41    1
    35    16    17    2
    36    18    19    1
    37    20    21   ar
    38    20    42    1
    39    21    22   ar
    40    21    43    1
    41    22    23    1
    42    23    24    1
    43    24    25    1
    44    24    26    1
    45    24    27    1
@<TRIPOS>SUBSTRUCTURE
     1 ZINC000624498741        1 TEMP              0 ****  ****    0 ROOT


##########                                Name:    ZINC001328997126
##########                DOCK_Rotatable_Bonds:                   7
##########                         Heavy_Atoms:                  26
##########                    Molecular_Weight:             388.488
##########                DOCK_Rotatable_Bonds:                   7
##########                       Formal_Charge:           0.0299993
##########                     HBond_Acceptors:                  10
##########                        HBond_Donors:                   1
##########                         Heavy_Atoms:                  26
##########                          Grid_Score:          -37.092640
##########                     Grid_vdw_energy:          -35.919342
##########                      Grid_es_energy:           -1.173300
##########           Internal_energy_repulsive:            7.047943

@<TRIPOS>MOLECULE
ZINC001328997126
 54 56 1 0 0
SMALL
USER_CHARGES


@<TRIPOS>ATOM
      1 C1        -12.6437   -0.1380   55.6187 C.3     1  ZINC001328997126   -0.1700
      2 C2        -11.6662   -1.0389   54.8612 C.3     1  ZINC001328997126    0.1400
      3 N3        -10.4554   -0.2810   54.5361 N.am    1  ZINC001328997126   -0.6300
      4 C4        -10.2022    0.4253   53.2709 C.3     1  ZINC001328997126    0.0700
      5 C5         -8.8029    1.0399   53.4675 C.3     1  ZINC001328997126    0.0700
      6 H6         -8.8512    2.1272   53.4067 H       1  ZINC001328997126    0.1200
      7 C7         -7.8243    0.4889   52.4284 C.3     1  ZINC001328997126    0.0500
      8 N8         -6.9310    1.5647   51.9783 N.3     1  ZINC001328997126   -0.5300
      9 C9         -6.3642    1.2605   50.6570 C.3     1  ZINC001328997126    0.0500
     10 C10        -5.5049    2.4378   50.1901 C.3     1  ZINC001328997126    0.0600
     11 N11        -4.4402    2.6839   51.1728 N.3     1  ZINC001328997126   -0.5200
     12 C12        -3.5469    3.7597   50.7229 C.3     1  ZINC001328997126    0.0400
     13 C13        -2.3217    3.1603   50.0821 C.2     1  ZINC001328997126    0.5200
     14 O14        -1.2187    3.4446   50.4989 O.2     1  ZINC001328997126   -0.5100
     15 N15        -2.4516    2.3084   49.0458 N.am    1  ZINC001328997126   -0.7300
     16 C16        -1.2604    1.7271   48.4218 C.3     1  ZINC001328997126    0.1600
     17 H17        -0.4260    2.4235   48.5055 H       1  ZINC001328997126    0.1100
     18 C18        -0.9025    0.4046   49.1221 C.3     1  ZINC001328997126   -0.1400
     19 C19         0.1369   -0.3085   48.2192 C.3     1  ZINC001328997126   -0.5800
     20 S20        -0.5463   -0.0437   46.5391 S.o2    1  ZINC001328997126    2.4000
     21 O21         0.5055    0.3184   45.6548 O.2     1  ZINC001328997126   -0.9300
     22 O22        -1.4106   -1.1216   46.2069 O.2     1  ZINC001328997126   -0.9300
     23 C23        -1.5445    1.4350   46.9349 C.3     1  ZINC001328997126   -0.6100
     24 C24        -5.0070    2.9881   52.4941 C.3     1  ZINC001328997126    0.0500
     25 C25        -5.8664    1.8108   52.9610 C.3     1  ZINC001328997126    0.0600
     26 O26        -8.4184    0.6199   54.8085 O.3     1  ZINC001328997126   -0.3100
     27 C27        -9.4002   -0.1134   55.3450 C.2     1  ZINC001328997126    0.6400
     28 O28        -9.3375   -0.5908   56.4606 O.2     1  ZINC001328997126   -0.5200
     29 H29       -12.1763    0.2124   56.5390 H       1  ZINC001328997126    0.0600
     30 H30       -12.9066    0.7172   54.9963 H       1  ZINC001328997126    0.0600
     31 H31       -13.5446   -0.7018   55.8606 H       1  ZINC001328997126    0.0700
     32 H32       -11.4034   -1.8941   55.4838 H       1  ZINC001328997126    0.0900
     33 H33       -12.1336   -1.3893   53.9410 H       1  ZINC001328997126    0.0900
     34 H34       -10.1990   -0.2748   52.4355 H       1  ZINC001328997126    0.0900
     35 H35       -10.9452    1.2072   53.1137 H       1  ZINC001328997126    0.0900
     36 H36        -7.2337   -0.3114   52.8740 H       1  ZINC001328997126    0.0900
     37 H37        -8.3808    0.0986   51.5763 H       1  ZINC001328997126    0.0600
     38 H38        -5.7476    0.3641   50.7235 H       1  ZINC001328997126    0.0500
     39 H39        -7.1719    1.0946   49.9442 H       1  ZINC001328997126    0.0900
     40 H40        -5.0601    2.2024   49.2233 H       1  ZINC001328997126    0.0800
     41 H41        -6.1271    3.3279   50.0976 H       1  ZINC001328997126    0.0500
     42 H42        -4.0675    4.3846   49.9972 H       1  ZINC001328997126    0.1100
     43 H43        -3.2495    4.3667   51.5781 H       1  ZINC001328997126    0.0700
     44 H44        -3.3337    2.0802   48.7132 H       1  ZINC001328997126    0.4100
     45 H45        -0.4697    0.6062   50.1020 H       1  ZINC001328997126    0.1100
     46 H46        -1.7932   -0.2150   49.2272 H       1  ZINC001328997126    0.0900
     47 H47         1.1175    0.1574   48.3159 H       1  ZINC001328997126    0.1400
     48 H48         0.1876   -1.3719   48.4530 H       1  ZINC001328997126    0.1400
     49 H49        -2.6040    1.2279   46.7841 H       1  ZINC001328997126    0.1400
     50 H50        -1.2315    2.2786   46.3198 H       1  ZINC001328997126    0.1500
     51 H51        -4.1993    3.1540   53.2069 H       1  ZINC001328997126    0.1000
     52 H52        -5.6236    3.8846   52.4276 H       1  ZINC001328997126    0.0400
     53 H53        -6.3112    2.0462   53.9278 H       1  ZINC001328997126    0.0800
     54 H54        -5.2441    0.9206   53.0536 H       1  ZINC001328997126    0.0500
@<TRIPOS>BOND
     1     1     2    1
     2     1    29    1
     3     1    30    1
     4     1    31    1
     5     2     3    1
     6     2    32    1
     7     2    33    1
     8     3    27   am
     9     3     4    1
    10     4     5    1
    11     4    34    1
    12     4    35    1
    13     5     6    1
    14     5     7    1
    15     5    26    1
    16     7     8    1
    17     7    36    1
    18     7    37    1
    19     8    25    1
    20     8     9    1
    21     9    10    1
    22     9    38    1
    23     9    39    1
    24    10    11    1
    25    10    40    1
    26    10    41    1
    27    11    12    1
    28    11    24    1
    29    12    13    1
    30    12    42    1
    31    12    43    1
    32    13    14    2
    33    13    15   am
    34    15    16    1
    35    15    44    1
    36    16    17    1
    37    16    23    1
    38    16    18    1
    39    18    19    1
    40    18    45    1
    41    18    46    1
    42    19    20    1
    43    19    47    1
    44    19    48    1
    45    20    21    2
    46    20    22    2
    47    20    23    1
    48    23    49    1
    49    23    50    1
    50    24    25    1
    51    24    51    1
    52    24    52    1
    53    25    53    1
    54    25    54    1
    55    26    27    1
    56    27    28    2
@<TRIPOS>SUBSTRUCTURE
     1 ZINC001328997126        1 TEMP              0 ****  ****    0 ROOT


##########                                Name:    ZINC000740843182
##########                DOCK_Rotatable_Bonds:                  10
##########                         Heavy_Atoms:                  24
##########                    Molecular_Weight:              419.34
##########                DOCK_Rotatable_Bonds:                  10
##########                       Formal_Charge:          0.00999957
##########                     HBond_Acceptors:                   7
##########                        HBond_Donors:                   3
##########                         Heavy_Atoms:                  24
##########                          Grid_Score:          -37.033791
##########                     Grid_vdw_energy:          -37.436470
##########                      Grid_es_energy:            0.402679
##########           Internal_energy_repulsive:           13.537187

@<TRIPOS>MOLECULE
ZINC000740843182
 47 48 1 0 0
SMALL
USER_CHARGES


@<TRIPOS>ATOM
      1 C1         -6.5043    1.0393   50.8506 C.3     1  ZINC000740843182   -0.1500
      2 C2         -6.1618    1.9334   52.0441 C.3     1  ZINC000740843182   -0.1000
      3 H3         -5.6296    1.3491   52.7948 H       1  ZINC000740843182    0.0900
      4 C4         -5.2769    3.0907   51.5769 C.3     1  ZINC000740843182    0.1200
      5 N5         -3.9174    2.6002   51.3373 N.am    1  ZINC000740843182   -0.7200
      6 C6         -3.4164    2.5871   50.0862 C.2     1  ZINC000740843182    0.5500
      7 O7         -4.0932    2.9809   49.1563 O.2     1  ZINC000740843182   -0.5000
      8 C8         -2.0443    2.0939   49.8448 C.ar    1  ZINC000740843182   -0.1300
      9 C9         -1.8390    0.9192   49.1194 C.ar    1  ZINC000740843182    0.0200
     10 C10        -0.5557    0.4646   48.8972 C.ar    1  ZINC000740843182   -0.6800
     11 S11        -0.2949   -1.0180   47.9816 S.o2    1  ZINC000740843182    2.7000
     12 O12         1.0982   -1.0819   47.7094 O.2     1  ZINC000740843182   -0.9400
     13 O13        -1.0004   -2.0429   48.6681 O.2     1  ZINC000740843182   -0.9500
     14 N14        -1.0489   -0.8301   46.5192 N.am    1  ZINC000740843182   -1.0900
     15 C15        -0.6477    0.2565   45.6224 C.3     1  ZINC000740843182    0.0800
     16 C16        -1.4304    0.4217   44.3182 C.3     1  ZINC000740843182   -0.1800
     17 C17        -1.6168    1.4286   45.4551 C.3     1  ZINC000740843182   -0.1900
     18 C18         0.5273    1.1701   49.3911 C.ar    1  ZINC000740843182    0.0100
     19 C19         0.3322    2.3350   50.1110 C.ar    1  ZINC000740843182   -0.1200
     20 C20        -0.9465    2.8043   50.3368 C.ar    1  ZINC000740843182    0.0100
     21 Br21       -1.2120    4.3970   51.3211 Br      1  ZINC000740843182    0.0100
     22 C22        -7.4513    2.4901   52.6510 C.3     1  ZINC000740843182   -0.1400
     23 C23        -8.1520    1.3927   53.4545 C.3     1  ZINC000740843182    0.1000
     24 H24        -8.1747    0.4728   52.8704 H       1  ZINC000740843182    0.1000
     25 C25        -9.5830    1.8294   53.7742 C.3     1  ZINC000740843182   -0.1900
     26 O26        -7.4399    1.1659   54.6726 O.3     1  ZINC000740843182   -0.5600
     27 H27        -7.1347    0.2148   51.1834 H       1  ZINC000740843182    0.0600
     28 H28        -7.0364    1.6236   50.1000 H       1  ZINC000740843182    0.0600
     29 H29        -5.5856    0.6428   50.4183 H       1  ZINC000740843182    0.0500
     30 H30        -5.6807    3.5074   50.6542 H       1  ZINC000740843182    0.0700
     31 H31        -5.2540    3.8637   52.3452 H       1  ZINC000740843182    0.0700
     32 H32        -3.3779    2.2849   52.0791 H       1  ZINC000740843182    0.4000
     33 H33        -2.6831    0.3673   48.7331 H       1  ZINC000740843182    0.1500
     34 H34        -1.7563   -1.4397   46.2564 H       1  ZINC000740843182    0.4200
     35 H35         0.4193    0.4787   45.6011 H       1  ZINC000740843182    0.1400
     36 H36        -0.8785    0.7525   43.4385 H       1  ZINC000740843182    0.1100
     37 H37        -2.2440   -0.2781   44.1275 H       1  ZINC000740843182    0.1000
     38 H38        -2.5529    1.3911   46.0122 H       1  ZINC000740843182    0.1000
     39 H39        -1.1874    2.4218   45.3232 H       1  ZINC000740843182    0.1100
     40 H40         1.5297    0.8093   49.2140 H       1  ZINC000740843182    0.1600
     41 H41         1.1818    2.8808   50.4937 H       1  ZINC000740843182    0.1500
     42 H42        -7.2120    3.3256   53.3088 H       1  ZINC000740843182    0.0700
     43 H43        -8.1099    2.8328   51.8530 H       1  ZINC000740843182    0.0800
     44 H44       -10.1261    2.0024   52.8451 H       1  ZINC000740843182    0.0700
     45 H45       -10.0822    1.0477   54.3467 H       1  ZINC000740843182    0.0600
     46 H46        -9.5603    2.7494   54.3584 H       1  ZINC000740843182    0.0600
     47 H47        -6.5274    0.8719   54.5459 H       1  ZINC000740843182    0.3700
@<TRIPOS>BOND
     1     1     2    1
     2     1    27    1
     3     1    28    1
     4     1    29    1
     5     2     3    1
     6     2     4    1
     7     2    22    1
     8     4     5    1
     9     4    30    1
    10     4    31    1
    11     5     6   am
    12     5    32    1
    13     6     7    2
    14     6     8    1
    15     8    20   ar
    16     8     9   ar
    17     9    10   ar
    18     9    33    1
    19    10    11    1
    20    10    18   ar
    21    11    12    2
    22    11    13    2
    23    11    14   am
    24    14    15    1
    25    14    34    1
    26    15    17    1
    27    15    16    1
    28    15    35    1
    29    16    17    1
    30    16    36    1
    31    16    37    1
    32    17    38    1
    33    17    39    1
    34    18    19   ar
    35    18    40    1
    36    19    20   ar
    37    19    41    1
    38    20    21    1
    39    22    23    1
    40    22    42    1
    41    22    43    1
    42    23    24    1
    43    23    25    1
    44    23    26    1
    45    25    44    1
    46    25    45    1
    47    25    46    1
    48    26    47    1
@<TRIPOS>SUBSTRUCTURE
     1 ZINC000740843182        1 TEMP              0 ****  ****    0 ROOT


##########                                Name:    ZINC001015955459
##########                DOCK_Rotatable_Bonds:                   6
##########                         Heavy_Atoms:                  24
##########                    Molecular_Weight:             347.844
##########                DOCK_Rotatable_Bonds:                   6
##########                       Formal_Charge:          -0.0200002
##########                     HBond_Acceptors:                   6
##########                        HBond_Donors:                   1
##########                         Heavy_Atoms:                  24
##########                          Grid_Score:          -36.976944
##########                     Grid_vdw_energy:          -35.851730
##########                      Grid_es_energy:           -1.125213
##########           Internal_energy_repulsive:           14.437973

@<TRIPOS>MOLECULE
ZINC001015955459
 46 48 1 0 0
SMALL
USER_CHARGES


@<TRIPOS>ATOM
      1 C1         -7.4328    3.7601   52.7413 C.3     1  ZINC001015955459   -0.1500
      2 C2         -6.6919    2.6421   53.4776 C.3     1  ZINC001015955459   -0.0300
      3 C3         -7.2085    2.5482   54.9147 C.3     1  ZINC001015955459   -0.1500
      4 C4         -6.9299    1.3322   52.7717 C.2     1  ZINC001015955459    0.0600
      5 C5         -6.3999    0.9468   51.5788 C.2     1  ZINC001015955459   -0.0800
      6 C6         -5.4841    1.7331   50.7325 C.2     1  ZINC001015955459    0.6100
      7 O7         -5.4951    1.5866   49.5252 O.2     1  ZINC001015955459   -0.5300
      8 N8         -4.6345    2.6143   51.2966 N.am    1  ZINC001015955459   -0.7100
      9 C9         -3.7256    3.3969   50.4554 C.3     1  ZINC001015955459    0.1400
     10 H10        -4.2884    3.9484   49.7023 H       1  ZINC001015955459    0.1000
     11 C11        -2.8959    4.3671   51.3215 C.3     1  ZINC001015955459   -0.1300
     12 C12        -1.4269    3.9490   51.0970 C.3     1  ZINC001015955459    0.0200
     13 N13        -1.4299    3.2643   49.7786 N.3     1  ZINC001015955459   -0.4900
     14 C14        -0.2588    2.3887   49.6375 C.3     1  ZINC001015955459    0.0800
     15 C15        -0.5566    1.3103   48.6279 C.ar    1  ZINC001015955459   -0.1100
     16 C16        -0.3849   -0.0190   48.9657 C.ar    1  ZINC001015955459   -0.1100
     17 C17        -0.6626   -1.0092   48.0415 C.ar    1  ZINC001015955459   -0.1000
     18 C18        -1.1019   -0.6699   46.7760 C.ar    1  ZINC001015955459   -0.1100
     19 C19        -1.2690    0.6609   46.4355 C.ar    1  ZINC001015955459   -0.0300
     20 Cl20       -1.8202    1.0879   44.8456 Cl      1  ZINC001015955459   -0.0700
     21 C21        -0.9961    1.6508   47.3623 C.ar    1  ZINC001015955459   -0.1000
     22 C22        -2.6898    2.4722   49.7804 C.3     1  ZINC001015955459    0.0100
     23 N23        -6.8790   -0.2983   51.3116 N.2     1  ZINC001015955459   -0.4600
     24 C24        -7.6524   -0.6609   52.2909 C.2     1  ZINC001015955459    0.1800
     25 O25        -7.7048    0.3228   53.2000 O.3     1  ZINC001015955459   -0.1900
     26 H26        -8.5006    3.5422   52.7301 H       1  ZINC001015955459    0.0600
     27 H27        -7.2605    4.7077   53.2519 H       1  ZINC001015955459    0.0700
     28 H28        -7.0646    3.8271   51.7176 H       1  ZINC001015955459    0.0600
     29 H29        -5.6239    2.8600   53.4889 H       1  ZINC001015955459    0.1300
     30 H30        -6.6807    1.7517   55.4392 H       1  ZINC001015955459    0.0600
     31 H31        -7.0363    3.4957   55.4253 H       1  ZINC001015955459    0.0700
     32 H32        -8.2764    2.3304   54.9034 H       1  ZINC001015955459    0.0600
     33 H33        -4.6249    2.7302   52.2597 H       1  ZINC001015955459    0.4100
     34 H34        -3.0515    5.3948   50.9935 H       1  ZINC001015955459    0.0800
     35 H35        -3.1650    4.2609   52.3724 H       1  ZINC001015955459    0.0700
     36 H36        -0.7820    4.8273   51.0677 H       1  ZINC001015955459    0.0900
     37 H37        -1.1025    3.2642   51.8804 H       1  ZINC001015955459    0.0500
     38 H38         0.5955    2.9759   49.3006 H       1  ZINC001015955459    0.0900
     39 H39        -0.0287    1.9317   50.6001 H       1  ZINC001015955459    0.0900
     40 H40        -0.0373   -0.2844   49.9532 H       1  ZINC001015955459    0.1300
     41 H41        -0.5322   -2.0477   48.3073 H       1  ZINC001015955459    0.1300
     42 H42        -1.3145   -1.4433   46.0527 H       1  ZINC001015955459    0.1300
     43 H43        -1.1258    2.6898   47.0970 H       1  ZINC001015955459    0.1300
     44 H44        -2.5635    1.5569   50.3586 H       1  ZINC001015955459    0.0700
     45 H45        -2.9958    2.2395   48.7605 H       1  ZINC001015955459    0.0900
     46 H46        -8.1743   -1.6039   52.3592 H       1  ZINC001015955459    0.2600
@<TRIPOS>BOND
     1     1     2    1
     2     1    26    1
     3     1    27    1
     4     1    28    1
     5     2     3    1
     6     2     4    1
     7     2    29    1
     8     3    30    1
     9     3    31    1
    10     3    32    1
    11     4    25    1
    12     4     5    2
    13     5     6    1
    14     5    23    1
    15     6     7    2
    16     6     8   am
    17     8     9    1
    18     8    33    1
    19     9    10    1
    20     9    22    1
    21     9    11    1
    22    11    12    1
    23    11    34    1
    24    11    35    1
    25    12    13    1
    26    12    36    1
    27    12    37    1
    28    13    14    1
    29    13    22    1
    30    14    15    1
    31    14    38    1
    32    14    39    1
    33    15    21   ar
    34    15    16   ar
    35    16    17   ar
    36    16    40    1
    37    17    18   ar
    38    17    41    1
    39    18    19   ar
    40    18    42    1
    41    19    20    1
    42    19    21   ar
    43    21    43    1
    44    22    44    1
    45    22    45    1
    46    23    24    2
    47    24    25    1
    48    24    46    1
@<TRIPOS>SUBSTRUCTURE
     1 ZINC001015955459        1 TEMP              0 ****  ****    0 ROOT


##########                                Name:    ZINC000504638019
##########                DOCK_Rotatable_Bonds:                   8
##########                         Heavy_Atoms:                  24
##########                    Molecular_Weight:             328.454
##########                DOCK_Rotatable_Bonds:                   8
##########                       Formal_Charge:        -1.49012e-08
##########                     HBond_Acceptors:                   4
##########                        HBond_Donors:                   1
##########                         Heavy_Atoms:                  24
##########                          Grid_Score:          -36.913288
##########                     Grid_vdw_energy:          -35.669186
##########                      Grid_es_energy:           -1.244104
##########           Internal_energy_repulsive:           13.186055

@<TRIPOS>MOLECULE
ZINC000504638019
 52 53 1 0 0
SMALL
USER_CHARGES


@<TRIPOS>ATOM
      1 C1         -2.1985    0.0564   43.7117 C.3     1  ZINC000504638019   -0.1200
      2 C2         -1.4554    0.1749   45.0175 C.ar    1  ZINC000504638019   -0.0900
      3 C3         -0.7826    1.3422   45.3264 C.ar    1  ZINC000504638019   -0.1200
      4 C4         -0.1010    1.4509   46.5240 C.ar    1  ZINC000504638019   -0.1100
      5 C5         -0.0925    0.3922   47.4130 C.ar    1  ZINC000504638019   -0.0900
      6 C6          0.6510    0.5105   48.7185 C.3     1  ZINC000504638019   -0.0600
      7 H7          0.4473   -0.3661   49.3333 H       1  ZINC000504638019    0.0900
      8 C8          2.1533    0.6026   48.4432 C.3     1  ZINC000504638019   -0.1500
      9 C9          0.1896    1.7691   49.4559 C.3     1  ZINC000504638019    0.1300
     10 N10        -1.2727    1.7745   49.5450 N.am    1  ZINC000504638019   -0.7000
     11 C11        -1.9318    2.9340   49.7390 C.2     1  ZINC000504638019    0.5100
     12 O12        -1.3140    3.9738   49.8384 O.2     1  ZINC000504638019   -0.5100
     13 C13        -3.4234    2.9392   49.8318 C.2     1  ZINC000504638019    0.5100
     14 O14        -4.0922    2.6166   48.8720 O.2     1  ZINC000504638019   -0.5200
     15 N15        -4.0258    3.3022   50.9815 N.am    1  ZINC000504638019   -0.5800
     16 C16        -3.2185    3.6917   52.1402 C.3     1  ZINC000504638019    0.0600
     17 C17        -5.4880    3.3074   51.0724 C.3     1  ZINC000504638019    0.1100
     18 C18        -5.9651    1.9919   51.6910 C.3     1  ZINC000504638019   -0.1000
     19 H19        -5.3331    1.7365   52.5416 H       1  ZINC000504638019    0.0800
     20 C20        -5.8955    0.8767   50.6454 C.3     1  ZINC000504638019   -0.0800
     21 C21        -6.6017   -0.3482   51.1484 C.2     1  ZINC000504638019   -0.1500
     22 C22        -7.4395   -0.3485   52.1350 C.2     1  ZINC000504638019   -0.1600
     23 C23        -7.8142    0.8741   52.9205 C.3     1  ZINC000504638019   -0.0900
     24 C24        -7.4199    2.1380   52.1549 C.3     1  ZINC000504638019   -0.1100
     25 C25        -0.7665   -0.7747   47.1047 C.ar    1  ZINC000504638019   -0.1100
     26 C26        -1.4513   -0.8819   45.9086 C.ar    1  ZINC000504638019   -0.1200
     27 H27        -3.2237    0.4021   43.8445 H       1  ZINC000504638019    0.0700
     28 H28        -1.7044    0.6668   42.9557 H       1  ZINC000504638019    0.0700
     29 H29        -2.2050   -0.9851   43.3905 H       1  ZINC000504638019    0.0700
     30 H30        -0.7893    2.1693   44.6319 H       1  ZINC000504638019    0.1200
     31 H31         0.4252    2.3626   46.7651 H       1  ZINC000504638019    0.1200
     32 H32         2.6910    0.6882   49.3874 H       1  ZINC000504638019    0.0600
     33 H33         2.4820   -0.2941   47.9179 H       1  ZINC000504638019    0.0600
     34 H34         2.3569    1.4792   47.8283 H       1  ZINC000504638019    0.0600
     35 H35         0.6148    1.7788   50.4594 H       1  ZINC000504638019    0.0800
     36 H36         0.5237    2.6523   48.9112 H       1  ZINC000504638019    0.0800
     37 H37        -1.7665    0.9435   49.4643 H       1  ZINC000504638019    0.4100
     38 H38        -2.9447    4.7433   52.0554 H       1  ZINC000504638019    0.0600
     39 H39        -3.7949    3.5388   53.0526 H       1  ZINC000504638019    0.0700
     40 H40        -2.3151    3.0828   52.1748 H       1  ZINC000504638019    0.1100
     41 H41        -5.8103    4.1405   51.6969 H       1  ZINC000504638019    0.0900
     42 H42        -5.9137    3.4152   50.0748 H       1  ZINC000504638019    0.0900
     43 H43        -6.3704    1.2149   49.7243 H       1  ZINC000504638019    0.0800
     44 H44        -4.8520    0.6350   50.4439 H       1  ZINC000504638019    0.0600
     45 H45        -6.3984   -1.2878   50.6563 H       1  ZINC000504638019    0.1000
     46 H46        -7.8977   -1.2871   52.4100 H       1  ZINC000504638019    0.1000
     47 H47        -8.8904    0.8765   53.0936 H       1  ZINC000504638019    0.0700
     48 H48        -7.2961    0.8604   53.8792 H       1  ZINC000504638019    0.0700
     49 H49        -7.5164    3.0062   52.8068 H       1  ZINC000504638019    0.0700
     50 H50        -8.0656    2.2558   51.2847 H       1  ZINC000504638019    0.0700
     51 H51        -0.7602   -1.6016   47.7993 H       1  ZINC000504638019    0.1200
     52 H52        -1.9778   -1.7935   45.6678 H       1  ZINC000504638019    0.1200
@<TRIPOS>BOND
     1     1     2    1
     2     1    27    1
     3     1    28    1
     4     1    29    1
     5     2    26   ar
     6     2     3   ar
     7     3     4   ar
     8     3    30    1
     9     4     5   ar
    10     4    31    1
    11     5     6    1
    12     5    25   ar
    13     6     7    1
    14     6     8    1
    15     6     9    1
    16     8    32    1
    17     8    33    1
    18     8    34    1
    19     9    10    1
    20     9    35    1
    21     9    36    1
    22    10    11   am
    23    10    37    1
    24    11    12    2
    25    11    13    1
    26    13    14    2
    27    13    15   am
    28    15    16    1
    29    15    17    1
    30    16    38    1
    31    16    39    1
    32    16    40    1
    33    17    18    1
    34    17    41    1
    35    17    42    1
    36    18    19    1
    37    18    24    1
    38    18    20    1
    39    20    21    1
    40    20    43    1
    41    20    44    1
    42    21    22    2
    43    21    45    1
    44    22    23    1
    45    22    46    1
    46    23    24    1
    47    23    47    1
    48    23    48    1
    49    24    49    1
    50    24    50    1
    51    25    26   ar
    52    25    51    1
    53    26    52    1
@<TRIPOS>SUBSTRUCTURE
     1 ZINC000504638019        1 TEMP              0 ****  ****    0 ROOT


##########                                Name:    ZINC001707162141
##########                DOCK_Rotatable_Bonds:                   9
##########                         Heavy_Atoms:                  25
##########                    Molecular_Weight:               344.5
##########                DOCK_Rotatable_Bonds:                   9
##########                       Formal_Charge:          -0.0299999
##########                     HBond_Acceptors:                   5
##########                        HBond_Donors:                   1
##########                         Heavy_Atoms:                  25
##########                          Grid_Score:          -36.858387
##########                     Grid_vdw_energy:          -35.888252
##########                      Grid_es_energy:           -0.970134
##########           Internal_energy_repulsive:           81.079918

@<TRIPOS>MOLECULE
ZINC001707162141
 57 59 1 0 0
SMALL
USER_CHARGES


@<TRIPOS>ATOM
      1 C1         -0.2577   -1.0271   47.6804 C.3     1  ZINC001707162141   -0.1800
      2 C2         -0.9917    0.0980   46.9481 C.3     1  ZINC001707162141    0.1700
      3 H3         -2.0655   -0.0865   46.9818 H       1  ZINC001707162141    0.1000
      4 N4         -0.6947    1.3812   47.5986 N.3     1  ZINC001707162141   -0.6400
      5 C5         -1.8716    1.8941   48.3129 C.3     1  ZINC001707162141    0.0700
      6 C6         -1.4631    3.0890   49.1767 C.3     1  ZINC001707162141    0.1500
      7 H7         -1.1621    3.9175   48.5355 H       1  ZINC001707162141    0.0700
      8 C8         -0.2970    2.6901   50.0866 C.3     1  ZINC001707162141   -0.1200
      9 C9          0.0153    3.8427   51.0438 C.3     1  ZINC001707162141   -0.0900
     10 H10         0.2638    4.7348   50.4688 H       1  ZINC001707162141    0.0700
     11 C11         1.2021    3.4611   51.9310 C.3     1  ZINC001707162141   -0.1500
     12 C12        -1.2067    4.1253   51.9206 C.3     1  ZINC001707162141   -0.1300
     13 C13        -2.3831    4.5404   51.0315 C.3     1  ZINC001707162141    0.1100
     14 N14        -2.5971    3.5015   50.0148 N.am    1  ZINC001707162141   -0.6100
     15 C15        -3.8106    2.9374   49.8543 C.2     1  ZINC001707162141    0.5100
     16 O16        -3.9745    2.0808   49.0115 O.2     1  ZINC001707162141   -0.4800
     17 C17        -4.9638    3.3709   50.7221 C.3     1  ZINC001707162141   -0.1400
     18 C18        -6.2707    2.8244   50.1441 C.3     1  ZINC001707162141   -0.0900
     19 C19        -6.5818    1.4679   50.7799 C.3     1  ZINC001707162141   -0.0900
     20 C20        -7.3382    1.6814   52.0925 C.3     1  ZINC001707162141   -0.1500
     21 C21        -6.6724    1.1904   53.3796 C.3     1  ZINC001707162141   -0.1800
     22 C22        -7.8771    0.4406   52.8073 C.3     1  ZINC001707162141   -0.1800
     23 C23        -0.5349    0.1449   45.5127 C.ar    1  ZINC001707162141    0.3500
     24 N24         0.7220    0.4405   45.2490 N.ar    1  ZINC001707162141   -0.5000
     25 C25         1.1605    0.4856   44.0013 C.ar    1  ZINC001707162141    0.1500
     26 C26         0.2756    0.2282   42.9661 C.ar    1  ZINC001707162141   -0.2400
     27 C27        -1.0396   -0.0735   43.2828 C.ar    1  ZINC001707162141    0.1500
     28 N28        -1.4043   -0.1055   44.5544 N.ar    1  ZINC001707162141   -0.5200
     29 H29        -0.5881   -1.0610   48.7185 H       1  ZINC001707162141    0.0600
     30 H30        -0.4780   -1.9791   47.1976 H       1  ZINC001707162141    0.0600
     31 H31         0.8161   -0.8425   47.6466 H       1  ZINC001707162141    0.0600
     32 H32         0.0966    1.2975   48.2189 H       1  ZINC001707162141    0.3300
     33 H33        -2.6260    2.2082   47.5916 H       1  ZINC001707162141    0.1000
     34 H34        -2.2812    1.1093   48.9488 H       1  ZINC001707162141    0.0200
     35 H35        -0.5697    1.8044   50.6603 H       1  ZINC001707162141    0.0700
     36 H36         0.5815    2.4740   49.4786 H       1  ZINC001707162141    0.0700
     37 H37         0.9536    2.5694   52.5064 H       1  ZINC001707162141    0.0500
     38 H38         2.0726    3.2599   51.3066 H       1  ZINC001707162141    0.0600
     39 H39         1.4253    4.2824   52.6119 H       1  ZINC001707162141    0.0600
     40 H40        -0.9757    4.9305   52.6179 H       1  ZINC001707162141    0.0700
     41 H41        -1.4709    3.2260   52.4772 H       1  ZINC001707162141    0.0700
     42 H42        -2.1556    5.4880   50.5435 H       1  ZINC001707162141    0.0600
     43 H43        -3.2812    4.6467   51.6399 H       1  ZINC001707162141    0.0800
     44 H44        -4.8238    2.9851   51.7319 H       1  ZINC001707162141    0.0800
     45 H45        -5.0069    4.4597   50.7519 H       1  ZINC001707162141    0.0800
     46 H46        -7.0819    3.5204   50.3580 H       1  ZINC001707162141    0.0700
     47 H47        -6.1691    2.7052   49.0654 H       1  ZINC001707162141    0.0700
     48 H48        -7.1958    0.8794   50.0983 H       1  ZINC001707162141    0.0600
     49 H49        -5.6503    0.9380   50.9794 H       1  ZINC001707162141    0.0600
     50 H50        -7.9331    2.5930   52.1495 H       1  ZINC001707162141    0.1000
     51 H51        -5.6955    0.7152   53.2911 H       1  ZINC001707162141    0.0900
     52 H52        -6.8291    1.7791   54.2835 H       1  ZINC001707162141    0.0900
     53 H53        -8.8262    0.5360   53.3347 H       1  ZINC001707162141    0.0900
     54 H54        -7.6926   -0.5278   52.3424 H       1  ZINC001707162141    0.0900
     55 H55         2.1927    0.7245   43.7921 H       1  ZINC001707162141    0.1600
     56 H56         0.6030    0.2614   41.9375 H       1  ZINC001707162141    0.1400
     57 H57        -1.7571   -0.2794   42.5022 H       1  ZINC001707162141    0.1600
@<TRIPOS>BOND
     1     1     2    1
     2     1    29    1
     3     1    30    1
     4     1    31    1
     5     2     3    1
     6     2     4    1
     7     2    23    1
     8     4     5    1
     9     4    32    1
    10     5     6    1
    11     5    33    1
    12     5    34    1
    13     6     7    1
    14     6    14    1
    15     6     8    1
    16     8     9    1
    17     8    35    1
    18     8    36    1
    19     9    10    1
    20     9    11    1
    21     9    12    1
    22    11    37    1
    23    11    38    1
    24    11    39    1
    25    12    13    1
    26    12    40    1
    27    12    41    1
    28    13    14    1
    29    13    42    1
    30    13    43    1
    31    14    15   am
    32    15    16    2
    33    15    17    1
    34    17    18    1
    35    17    44    1
    36    17    45    1
    37    18    19    1
    38    18    46    1
    39    18    47    1
    40    19    20    1
    41    19    48    1
    42    19    49    1
    43    20    22    1
    44    20    21    1
    45    20    50    1
    46    21    22    1
    47    21    51    1
    48    21    52    1
    49    22    53    1
    50    22    54    1
    51    23    28   ar
    52    23    24   ar
    53    24    25   ar
    54    25    26   ar
    55    25    55    1
    56    26    27   ar
    57    26    56    1
    58    27    28   ar
    59    27    57    1
@<TRIPOS>SUBSTRUCTURE
     1 ZINC001707162141        1 TEMP              0 ****  ****    0 ROOT


##########                                Name:    ZINC000033150761
##########                DOCK_Rotatable_Bonds:                   7
##########                         Heavy_Atoms:                  29
##########                    Molecular_Weight:             413.407
##########                DOCK_Rotatable_Bonds:                   7
##########                       Formal_Charge:          0.00999993
##########                     HBond_Acceptors:                  10
##########                        HBond_Donors:                   1
##########                         Heavy_Atoms:                  29
##########                          Grid_Score:          -36.793179
##########                     Grid_vdw_energy:          -35.372200
##########                      Grid_es_energy:           -1.420977
##########           Internal_energy_repulsive:            4.502799

@<TRIPOS>MOLECULE
ZINC000033150761
 42 45 1 0 0
SMALL
USER_CHARGES


@<TRIPOS>ATOM
      1 O1         -1.5802    0.8577   49.4609 O.2     1  ZINC000033150761   -0.5000
      2 C2         -2.1244    0.9905   48.3852 C.2     1  ZINC000033150761    0.5200
      3 C3         -1.4586    0.4752   47.1353 C.3     1  ZINC000033150761   -0.1300
      4 C4         -1.7287    1.4399   45.9788 C.3     1  ZINC000033150761   -0.0100
      5 C5         -1.0878    0.9097   44.7222 C.2     1  ZINC000033150761    0.1800
      6 N6          0.1490    1.1042   44.3379 N.2     1  ZINC000033150761   -0.4400
      7 C7          0.2723    0.4456   43.1636 C.2     1  ZINC000033150761    0.2200
      8 C8          1.4939    0.3625   42.3237 C.ar    1  ZINC000033150761    0.1900
      9 C9          1.4633   -0.3527   41.1297 C.ar    1  ZINC000033150761   -0.1300
     10 C10         2.6105   -0.4214   40.3566 C.ar    1  ZINC000033150761   -0.0700
     11 C11         3.7506    0.2285   40.8052 C.ar    1  ZINC000033150761   -0.1500
     12 C12         3.7097    0.9213   42.0021 C.ar    1  ZINC000033150761    0.1100
     13 N13         2.6036    0.9749   42.7147 N.ar    1  ZINC000033150761   -0.4500
     14 N14        -0.8851   -0.1047   42.9061 N.2     1  ZINC000033150761   -0.3600
     15 O15        -1.6731    0.1475   43.7931 O.3     1  ZINC000033150761    0.0900
     16 N16        -3.3270    1.5940   48.3083 N.am    1  ZINC000033150761   -0.6200
     17 C17        -3.9409    2.0691   49.4608 C.2     1  ZINC000033150761    0.2700
     18 N18        -5.0732    1.6504   49.9338 N.2     1  ZINC000033150761   -0.5000
     19 C19        -5.5077    2.2209   51.0487 C.2     1  ZINC000033150761    0.1200
     20 C20        -6.7867    1.8323   51.6918 C.ar    1  ZINC000033150761    0.0000
     21 C21        -7.0202    0.5021   52.0351 C.ar    1  ZINC000033150761   -0.0800
     22 C22        -8.2112    0.1440   52.6338 C.ar    1  ZINC000033150761   -0.1200
     23 C23        -9.1745    1.1038   52.8939 C.ar    1  ZINC000033150761    0.0700
     24 F24       -10.3386    0.7484   53.4801 F       1  ZINC000033150761   -0.1300
     25 C25        -8.9472    2.4302   52.5546 C.ar    1  ZINC000033150761    0.0700
     26 F26        -9.8899    3.3634   52.8109 F       1  ZINC000033150761   -0.1300
     27 C27        -7.7559    2.7978   51.9596 C.ar    1  ZINC000033150761   -0.1000
     28 C28        -4.7087    3.1762   51.5567 C.2     1  ZINC000033150761   -0.2800
     29 S29        -3.2987    3.3286   50.5108 S.3     1  ZINC000033150761    0.2200
     30 H30        -0.3840    0.3987   47.3011 H       1  ZINC000033150761    0.1200
     31 H31        -1.8592   -0.5081   46.8892 H       1  ZINC000033150761    0.1200
     32 H32        -2.8040    1.5330   45.8269 H       1  ZINC000033150761    0.1300
     33 H33        -1.3094    2.4177   46.2159 H       1  ZINC000033150761    0.1200
     34 H34         0.5577   -0.8473   40.8109 H       1  ZINC000033150761    0.1400
     35 H35         2.6172   -0.9690   39.4258 H       1  ZINC000033150761    0.1500
     36 H36         4.6615    0.1940   40.2259 H       1  ZINC000033150761    0.1400
     37 H37         4.5956    1.4287   42.3546 H       1  ZINC000033150761    0.1700
     38 H38        -3.7640    1.6967   47.4484 H       1  ZINC000033150761    0.4300
     39 H39        -6.2701   -0.2480   51.8325 H       1  ZINC000033150761    0.1400
     40 H40        -8.3923   -0.8871   52.8995 H       1  ZINC000033150761    0.1500
     41 H41        -7.5788    3.8299   51.6955 H       1  ZINC000033150761    0.1600
     42 H42        -4.8967    3.7479   52.4535 H       1  ZINC000033150761    0.1800
@<TRIPOS>BOND
     1     1     2    2
     2     2     3    1
     3     2    16   am
     4     3     4    1
     5     3    30    1
     6     3    31    1
     7     4     5    1
     8     4    32    1
     9     4    33    1
    10     5    15    1
    11     5     6    2
    12     6     7    1
    13     7     8    1
    14     7    14    2
    15     8    13   ar
    16     8     9   ar
    17     9    10   ar
    18     9    34    1
    19    10    11   ar
    20    10    35    1
    21    11    12   ar
    22    11    36    1
    23    12    13   ar
    24    12    37    1
    25    14    15    1
    26    16    17    1
    27    16    38    1
    28    17    29    1
    29    17    18    2
    30    18    19    1
    31    19    20    1
    32    19    28    2
    33    20    27   ar
    34    20    21   ar
    35    21    22   ar
    36    21    39    1
    37    22    23   ar
    38    22    40    1
    39    23    24    1
    40    23    25   ar
    41    25    26    1
    42    25    27   ar
    43    27    41    1
    44    28    29    1
    45    28    42    1
@<TRIPOS>SUBSTRUCTURE
     1 ZINC000033150761        1 TEMP              0 ****  ****    0 ROOT


##########                                Name:    ZINC000508782983
##########                DOCK_Rotatable_Bonds:                   9
##########                         Heavy_Atoms:                  27
##########                    Molecular_Weight:             373.458
##########                DOCK_Rotatable_Bonds:                   9
##########                       Formal_Charge:          -0.0200006
##########                     HBond_Acceptors:                   9
##########                        HBond_Donors:                   2
##########                         Heavy_Atoms:                  27
##########                          Grid_Score:          -36.768967
##########                     Grid_vdw_energy:          -36.837242
##########                      Grid_es_energy:            0.068276
##########           Internal_energy_repulsive:           21.245144

@<TRIPOS>MOLECULE
ZINC000508782983
 54 56 1 0 0
SMALL
USER_CHARGES


@<TRIPOS>ATOM
      1 C1         -8.4089    3.0955   52.1000 C.3     1  ZINC000508782983   -0.1500
      2 C2         -7.7345    3.1304   53.4729 C.3     1  ZINC000508782983   -0.1100
      3 C3         -8.6854    2.5525   54.5230 C.3     1  ZINC000508782983   -0.1500
      4 C4         -6.4521    2.2969   53.4325 C.3     1  ZINC000508782983    0.1000
      5 N5         -6.6212    1.1858   52.4926 N.pl3   1  ZINC000508782983   -0.4400
      6 C6         -7.2676    0.0047   52.7392 C.2     1  ZINC000508782983   -0.0400
      7 C7         -7.1883   -0.7259   51.6107 C.2     1  ZINC000508782983   -0.0300
      8 N8         -6.5120   -0.0102   50.6999 N.2     1  ZINC000508782983   -0.4700
      9 C9         -6.1735    1.1379   51.2196 C.2     1  ZINC000508782983    0.1700
     10 C10        -5.4024    2.2263   50.5182 C.3     1  ZINC000508782983    0.2100
     11 N11        -4.0087    1.8070   50.3506 N.am    1  ZINC000508782983   -0.6900
     12 C12        -3.0605    2.7199   50.0606 C.2     1  ZINC000508782983    0.5100
     13 O13        -3.3610    3.8894   49.9399 O.2     1  ZINC000508782983   -0.5100
     14 C14        -1.6390    2.2919   49.8879 C.2     1  ZINC000508782983    0.5100
     15 O15        -0.8342    2.4886   50.7745 O.2     1  ZINC000508782983   -0.5200
     16 N16        -1.2511    1.6876   48.7474 N.am    1  ZINC000508782983   -0.5800
     17 C17        -2.2090    1.4452   47.6580 C.3     1  ZINC000508782983    0.0800
     18 C18        -1.6116    1.9871   46.3550 C.3     1  ZINC000508782983    0.0400
     19 N19        -0.2787    1.4040   46.1514 N.3     1  ZINC000508782983   -0.5400
     20 C20         0.2568    1.7628   44.8314 C.3     1  ZINC000508782983    0.1400
     21 C21        -0.1786    0.7369   43.8170 C.2     1  ZINC000508782983    0.2100
     22 N22        -1.2947    0.0613   43.8491 N.2     1  ZINC000508782983   -0.4900
     23 C23        -1.3466   -0.7579   42.7885 C.2     1  ZINC000508782983   -0.0300
     24 C24        -0.2200   -0.5834   42.0717 C.2     1  ZINC000508782983   -0.0500
     25 N25         0.5190    0.3686   42.7208 N.pl3   1  ZINC000508782983   -0.5600
     26 C26         0.6462    1.8025   47.2209 C.3     1  ZINC000508782983    0.0400
     27 C27         0.1428    1.2585   48.5569 C.3     1  ZINC000508782983    0.1100
     28 H28        -9.3225    3.6893   52.1288 H       1  ZINC000508782983    0.0700
     29 H29        -7.7314    3.5072   51.3518 H       1  ZINC000508782983    0.0600
     30 H30        -8.6532    2.0652   51.8413 H       1  ZINC000508782983    0.0600
     31 H31        -7.4902    4.1607   53.7317 H       1  ZINC000508782983    0.0800
     32 H32        -8.9906    1.5497   54.2243 H       1  ZINC000508782983    0.0600
     33 H33        -8.1778    2.5060   55.4865 H       1  ZINC000508782983    0.0600
     34 H34        -9.5654    3.1904   54.6065 H       1  ZINC000508782983    0.0600
     35 H35        -5.6214    2.9237   53.1084 H       1  ZINC000508782983    0.1000
     36 H36        -6.2435    1.9028   54.4271 H       1  ZINC000508782983    0.0900
     37 H37        -7.7485   -0.2857   53.6617 H       1  ZINC000508782983    0.1800
     38 H38        -7.5977   -1.7145   51.4645 H       1  ZINC000508782983    0.1700
     39 H39        -5.8457    2.4131   49.5400 H       1  ZINC000508782983    0.0900
     40 H40        -5.4382    3.1386   51.1135 H       1  ZINC000508782983    0.1100
     41 H41        -3.7682    0.8724   50.4482 H       1  ZINC000508782983    0.4200
     42 H42        -2.3895    0.3746   47.5606 H       1  ZINC000508782983    0.0800
     43 H43        -3.1458    1.9592   47.8729 H       1  ZINC000508782983    0.1400
     44 H44        -2.2576    1.7183   45.5193 H       1  ZINC000508782983    0.0900
     45 H45        -1.5284    3.0721   46.4167 H       1  ZINC000508782983    0.0400
     46 H46        -0.1197    2.7435   44.5409 H       1  ZINC000508782983    0.0900
     47 H47         1.3456    1.7901   44.8761 H       1  ZINC000508782983    0.0700
     48 H48        -2.1510   -1.4383   42.5509 H       1  ZINC000508782983    0.1700
     49 H49         0.0473   -1.0935   41.1580 H       1  ZINC000508782983    0.1800
     50 H50         1.3844    0.7107   42.4475 H       1  ZINC000508782983    0.4200
     51 H51         1.6376    1.3998   47.0130 H       1  ZINC000508782983    0.1100
     52 H52         0.6980    2.8901   47.2704 H       1  ZINC000508782983    0.0400
     53 H53         0.7609    1.6464   49.3665 H       1  ZINC000508782983    0.1000
     54 H54         0.1865    0.1694   48.5487 H       1  ZINC000508782983    0.0800
@<TRIPOS>BOND
     1     1     2    1
     2     1    28    1
     3     1    29    1
     4     1    30    1
     5     2     3    1
     6     2     4    1
     7     2    31    1
     8     3    32    1
     9     3    33    1
    10     3    34    1
    11     4     5    1
    12     4    35    1
    13     4    36    1
    14     5     9    1
    15     5     6    1
    16     6     7    2
    17     6    37    1
    18     7     8    1
    19     7    38    1
    20     8     9    2
    21     9    10    1
    22    10    11    1
    23    10    39    1
    24    10    40    1
    25    11    12   am
    26    11    41    1
    27    12    13    2
    28    12    14    1
    29    14    15    2
    30    14    16   am
    31    16    27    1
    32    16    17    1
    33    17    18    1
    34    17    42    1
    35    17    43    1
    36    18    19    1
    37    18    44    1
    38    18    45    1
    39    19    20    1
    40    19    26    1
    41    20    21    1
    42    20    46    1
    43    20    47    1
    44    21    25    1
    45    21    22    2
    46    22    23    1
    47    23    24    2
    48    23    48    1
    49    24    25    1
    50    24    49    1
    51    25    50    1
    52    26    27    1
    53    26    51    1
    54    26    52    1
    55    27    53    1
    56    27    54    1
@<TRIPOS>SUBSTRUCTURE
     1 ZINC000508782983        1 TEMP              0 ****  ****    0 ROOT


##########                                Name:    ZINC000110375116
##########                DOCK_Rotatable_Bonds:                  10
##########                         Heavy_Atoms:                  27
##########                    Molecular_Weight:             396.511
##########                DOCK_Rotatable_Bonds:                  10
##########                       Formal_Charge:        -2.23517e-07
##########                     HBond_Acceptors:                   9
##########                        HBond_Donors:                   0
##########                         Heavy_Atoms:                  27
##########                          Grid_Score:          -36.743008
##########                     Grid_vdw_energy:          -35.315155
##########                      Grid_es_energy:           -1.427852
##########           Internal_energy_repulsive:           31.959545

@<TRIPOS>MOLECULE
ZINC000110375116
 55 56 1 0 0
SMALL
USER_CHARGES


@<TRIPOS>ATOM
      1 C1         -1.4813    0.1661   43.7043 C.3     1  ZINC000110375116   -0.1700
      2 C2         -0.7723    1.3131   44.4272 C.3     1  ZINC000110375116    0.1000
      3 N3         -0.5501    0.9446   45.8276 N.am    1  ZINC000110375116   -0.6200
      4 C4          0.7250    0.3495   46.2350 C.3     1  ZINC000110375116    0.1100
      5 C5          1.6364    1.4376   46.8062 C.3     1  ZINC000110375116   -0.1700
      6 C6         -1.5189    1.1531   46.7411 C.2     1  ZINC000110375116    0.5100
      7 O7         -2.5751    1.6444   46.4036 O.2     1  ZINC000110375116   -0.5300
      8 C8         -1.2896    0.7756   48.1820 C.3     1  ZINC000110375116   -0.1400
      9 C9         -1.6068    1.9734   49.0796 C.3     1  ZINC000110375116   -0.0900
     10 C10        -3.0888    1.9482   49.4588 C.3     1  ZINC000110375116   -0.1400
     11 C11        -3.3945    3.1106   50.3679 C.2     1  ZINC000110375116    0.5200
     12 O12        -2.4911    3.7864   50.8130 O.2     1  ZINC000110375116   -0.5300
     13 N13        -4.6720    3.3992   50.6865 N.am    1  ZINC000110375116   -0.6200
     14 C14        -5.7765    2.5863   50.1582 C.3     1  ZINC000110375116    0.0900
     15 C15        -6.6143    2.0732   51.3360 C.3     1  ZINC000110375116    0.1000
     16 N16        -6.9275    3.2060   52.2182 N.am    1  ZINC000110375116   -1.0000
     17 S17        -8.4969    3.5599   52.6105 S.o2    1  ZINC000110375116    2.7000
     18 O18        -9.0615    2.3622   53.1264 O.2     1  ZINC000110375116   -0.9400
     19 O19        -8.4633    4.7798   53.3384 O.2     1  ZINC000110375116   -0.9500
     20 C20        -9.3464    3.9021   51.1052 C.ar    1  ZINC000110375116   -0.7400
     21 C21       -10.5434    3.2661   50.8145 C.ar    1  ZINC000110375116    0.0200
     22 C22       -11.1771    3.5668   49.6183 C.ar    1  ZINC000110375116   -0.1900
     23 C23       -10.5985    4.4839   48.7618 C.ar    1  ZINC000110375116    0.1500
     24 N24        -9.4582    5.0698   49.0711 N.ar    1  ZINC000110375116   -0.4900
     25 C25        -8.8306    4.8123   50.2017 C.ar    1  ZINC000110375116    0.2000
     26 C26        -5.8229    4.0188   52.7466 C.3     1  ZINC000110375116    0.1000
     27 C27        -4.9848    4.5286   51.5733 C.3     1  ZINC000110375116    0.1000
     28 H28        -1.6466    0.4403   42.6624 H       1  ZINC000110375116    0.0700
     29 H29        -0.8625   -0.7300   43.7505 H       1  ZINC000110375116    0.0600
     30 H30        -2.4398   -0.0291   44.1851 H       1  ZINC000110375116    0.0600
     31 H31         0.1863    1.5083   43.9464 H       1  ZINC000110375116    0.0800
     32 H32        -1.3910    2.2093   44.3810 H       1  ZINC000110375116    0.0800
     33 H33         0.5449   -0.4100   46.9959 H       1  ZINC000110375116    0.0800
     34 H34         1.2046   -0.1093   45.3703 H       1  ZINC000110375116    0.0800
     35 H35         2.5851    0.9948   47.1093 H       1  ZINC000110375116    0.0700
     36 H36         1.8165    2.1970   46.0453 H       1  ZINC000110375116    0.0500
     37 H37         1.1567    1.8962   47.6709 H       1  ZINC000110375116    0.0600
     38 H38        -1.9390   -0.0587   48.4468 H       1  ZINC000110375116    0.0900
     39 H39        -0.2485    0.4839   48.3199 H       1  ZINC000110375116    0.0900
     40 H40        -0.9995    1.9211   49.9832 H       1  ZINC000110375116    0.0800
     41 H41        -1.3842    2.8969   48.5452 H       1  ZINC000110375116    0.0800
     42 H42        -3.6960    2.0230   48.5568 H       1  ZINC000110375116    0.1000
     43 H43        -3.3163    1.0147   49.9737 H       1  ZINC000110375116    0.1000
     44 H44        -6.3996    3.1966   49.5045 H       1  ZINC000110375116    0.0800
     45 H45        -5.3741    1.7411   49.5998 H       1  ZINC000110375116    0.1000
     46 H46        -7.5391    1.6334   50.9629 H       1  ZINC000110375116    0.1100
     47 H47        -6.0475    1.3244   51.8893 H       1  ZINC000110375116    0.0800
     48 H48       -10.9720    2.5531   51.5032 H       1  ZINC000110375116    0.1500
     49 H49       -12.1108    3.0901   49.3592 H       1  ZINC000110375116    0.1500
     50 H50       -11.0854    4.7233   47.8280 H       1  ZINC000110375116    0.1700
     51 H51        -7.8985    5.3119   50.4207 H       1  ZINC000110375116    0.1700
     52 H52        -6.2253    4.8641   53.3051 H       1  ZINC000110375116    0.1100
     53 H53        -5.1998    3.4086   53.4003 H       1  ZINC000110375116    0.0800
     54 H54        -4.0603    4.9680   51.9479 H       1  ZINC000110375116    0.1100
     55 H55        -5.5499    5.2772   51.0180 H       1  ZINC000110375116    0.0800
@<TRIPOS>BOND
     1     1     2    1
     2     1    28    1
     3     1    29    1
     4     1    30    1
     5     2     3    1
     6     2    31    1
     7     2    32    1
     8     3     4    1
     9     3     6   am
    10     4     5    1
    11     4    33    1
    12     4    34    1
    13     5    35    1
    14     5    36    1
    15     5    37    1
    16     6     7    2
    17     6     8    1
    18     8     9    1
    19     8    38    1
    20     8    39    1
    21     9    10    1
    22     9    40    1
    23     9    41    1
    24    10    11    1
    25    10    42    1
    26    10    43    1
    27    11    12    2
    28    11    13   am
    29    13    27    1
    30    13    14    1
    31    14    15    1
    32    14    44    1
    33    14    45    1
    34    15    16    1
    35    15    46    1
    36    15    47    1
    37    16    17   am
    38    16    26    1
    39    17    18    2
    40    17    19    2
    41    17    20    1
    42    20    25   ar
    43    20    21   ar
    44    21    22   ar
    45    21    48    1
    46    22    23   ar
    47    22    49    1
    48    23    24   ar
    49    23    50    1
    50    24    25   ar
    51    25    51    1
    52    26    27    1
    53    26    52    1
    54    26    53    1
    55    27    54    1
    56    27    55    1
@<TRIPOS>SUBSTRUCTURE
     1 ZINC000110375116        1 TEMP              0 ****  ****    0 ROOT


##########                                Name:    ZINC000672622940
##########                DOCK_Rotatable_Bonds:                   7
##########                         Heavy_Atoms:                  30
##########                    Molecular_Weight:             416.523
##########                DOCK_Rotatable_Bonds:                   7
##########                       Formal_Charge:          -0.0100002
##########                     HBond_Acceptors:                   9
##########                        HBond_Donors:                   1
##########                         Heavy_Atoms:                  30
##########                          Grid_Score:          -36.741829
##########                     Grid_vdw_energy:          -33.690788
##########                      Grid_es_energy:           -3.051041
##########           Internal_energy_repulsive:           28.910280

@<TRIPOS>MOLECULE
ZINC000672622940
 62 65 1 0 0
SMALL
USER_CHARGES


@<TRIPOS>ATOM
      1 C1         -9.4860    2.4960   60.3155 C.3     1  ZINC000672622940    0.0800
      2 N2         -8.6031    1.3372   60.1612 N.am    1  ZINC000672622940   -0.6200
      3 C3         -8.5390    0.3198   61.2134 C.3     1  ZINC000672622940    0.0700
      4 C4         -7.8497    1.2071   59.0512 C.2     1  ZINC000672622940    0.5200
      5 O5         -7.1199    0.2471   58.9228 O.2     1  ZINC000672622940   -0.5300
      6 C6         -7.9144    2.2547   57.9698 C.3     1  ZINC000672622940   -0.1000
      7 H7         -8.9429    2.5974   57.8568 H       1  ZINC000672622940    0.1000
      8 C8         -7.0218    3.4373   58.3512 C.3     1  ZINC000672622940   -0.1300
      9 C9         -7.0873    4.5008   57.2532 C.3     1  ZINC000672622940   -0.1100
     10 C10        -6.6018    3.9006   55.9323 C.3     1  ZINC000672622940   -0.1300
     11 C11        -7.4944    2.7179   55.5508 C.3     1  ZINC000672622940    0.1400
     12 H12        -8.5229    3.0606   55.4378 H       1  ZINC000672622940    0.1000
     13 N13        -7.0295    2.1432   54.2859 N.am    1  ZINC000672622940   -0.6900
     14 C14        -7.4747    2.6415   53.1154 C.2     1  ZINC000672622940    0.5100
     15 O15        -8.2593    3.5671   53.1092 O.2     1  ZINC000672622940   -0.5100
     16 C16        -7.0018    2.0541   51.8252 C.2     1  ZINC000672622940    0.5100
     17 O17        -7.4806    1.0154   51.4197 O.2     1  ZINC000672622940   -0.5200
     18 N18        -6.0435    2.6780   51.1118 N.am    1  ZINC000672622940   -0.5800
     19 C19        -5.4499    3.9331   51.5925 C.3     1  ZINC000672622940    0.0700
     20 C20        -3.9264    3.7760   51.6282 C.3     1  ZINC000672622940   -0.1200
     21 C21        -3.4308    3.3341   50.2494 C.3     1  ZINC000672622940    0.0000
     22 C22        -1.9289    3.2115   50.2712 C.2     1  ZINC000672622940    0.2000
     23 N23        -1.0869    4.0964   50.7307 N.2     1  ZINC000672622940   -0.2800
     24 N24         0.1154    3.6624   50.5921 N.2     1  ZINC000672622940   -0.2800
     25 C25         0.0940    2.4792   50.0381 C.2     1  ZINC000672622940    0.1500
     26 C26         0.9895    1.3547   49.5649 C.3     1  ZINC000672622940   -0.0400
     27 C27         0.0375    0.1458   49.4174 C.3     1  ZINC000672622940   -0.1300
     28 C28        -1.3224    0.8406   49.1879 C.3     1  ZINC000672622940    0.1000
     29 N29        -1.2014    2.1588   49.8225 N.pl3   1  ZINC000672622940   -0.4900
     30 C30        -4.0478    1.9794   49.8937 C.3     1  ZINC000672622940   -0.1200
     31 C31        -5.5683    2.1129   49.8415 C.3     1  ZINC000672622940    0.1100
     32 C32        -7.4289    1.6545   56.6488 C.3     1  ZINC000672622940   -0.1100
     33 H33        -8.9441    3.3025   60.8095 H       1  ZINC000672622940    0.0600
     34 H34        -9.8208    2.8311   59.3338 H       1  ZINC000672622940    0.0800
     35 H35       -10.3502    2.2165   60.9182 H       1  ZINC000672622940    0.0700
     36 H36        -9.2841   -0.4516   61.0187 H       1  ZINC000672622940    0.0600
     37 H37        -7.5457   -0.1289   61.2248 H       1  ZINC000672622940    0.0800
     38 H38        -8.7396    0.7831   62.1794 H       1  ZINC000672622940    0.0700
     39 H39        -7.3677    3.8649   59.2923 H       1  ZINC000672622940    0.0800
     40 H40        -5.9931    3.0945   58.4641 H       1  ZINC000672622940    0.0700
     41 H41        -8.1158    4.8435   57.1403 H       1  ZINC000672622940    0.0700
     42 H42        -6.4513    5.3432   57.5250 H       1  ZINC000672622940    0.0700
     43 H43        -6.6485    4.6582   55.1500 H       1  ZINC000672622940    0.0700
     44 H44        -5.5732    3.5578   56.0452 H       1  ZINC000672622940    0.0700
     45 H45        -6.4014    1.4042   54.2909 H       1  ZINC000672622940    0.4100
     46 H46        -5.7178    4.7460   50.9177 H       1  ZINC000672622940    0.0700
     47 H47        -5.8182    4.1510   52.5950 H       1  ZINC000672622940    0.1400
     48 H48        -3.4684    4.7296   51.8908 H       1  ZINC000672622940    0.0800
     49 H49        -3.6553    3.0250   52.3702 H       1  ZINC000672622940    0.0800
     50 H50        -3.7240    4.0733   49.5039 H       1  ZINC000672622940    0.0900
     51 H51         1.4401    1.6045   48.6043 H       1  ZINC000672622940    0.1000
     52 H52         1.7610    1.1444   50.3057 H       1  ZINC000672622940    0.1000
     53 H53         0.3133   -0.4651   48.5578 H       1  ZINC000672622940    0.1100
     54 H54         0.0214   -0.4512   50.3293 H       1  ZINC000672622940    0.0900
     55 H55        -1.5154    0.9479   48.1204 H       1  ZINC000672622940    0.1000
     56 H56        -2.1217    0.2698   49.6606 H       1  ZINC000672622940    0.1000
     57 H57        -3.6762    1.6542   48.9220 H       1  ZINC000672622940    0.0800
     58 H58        -3.7755    1.2453   50.6521 H       1  ZINC000672622940    0.0800
     59 H59        -6.0161    1.1312   49.6866 H       1  ZINC000672622940    0.1000
     60 H60        -5.8489    2.7778   49.0247 H       1  ZINC000672622940    0.0800
     61 H61        -6.4003    1.3117   56.7617 H       1  ZINC000672622940    0.0800
     62 H62        -8.0647    0.8119   56.3769 H       1  ZINC000672622940    0.0800
@<TRIPOS>BOND
     1     1     2    1
     2     1    33    1
     3     1    34    1
     4     1    35    1
     5     2     3    1
     6     2     4   am
     7     3    36    1
     8     3    37    1
     9     3    38    1
    10     4     5    2
    11     4     6    1
    12     6     7    1
    13     6    32    1
    14     6     8    1
    15     8     9    1
    16     8    39    1
    17     8    40    1
    18     9    10    1
    19     9    41    1
    20     9    42    1
    21    10    11    1
    22    10    43    1
    23    10    44    1
    24    11    12    1
    25    11    13    1
    26    11    32    1
    27    13    14   am
    28    13    45    1
    29    14    15    2
    30    14    16    1
    31    16    17    2
    32    16    18   am
    33    18    31    1
    34    18    19    1
    35    19    20    1
    36    19    46    1
    37    19    47    1
    38    20    21    1
    39    20    48    1
    40    20    49    1
    41    21    22    1
    42    21    30    1
    43    21    50    1
    44    22    29    1
    45    22    23    2
    46    23    24    1
    47    24    25    2
    48    25    29    1
    49    25    26    1
    50    26    27    1
    51    26    51    1
    52    26    52    1
    53    27    28    1
    54    27    53    1
    55    27    54    1
    56    28    29    1
    57    28    55    1
    58    28    56    1
    59    30    31    1
    60    30    57    1
    61    30    58    1
    62    31    59    1
    63    31    60    1
    64    32    61    1
    65    32    62    1
@<TRIPOS>SUBSTRUCTURE
     1 ZINC000672622940        1 TEMP              0 ****  ****    0 ROOT


##########                                Name:    ZINC000004598904
##########                DOCK_Rotatable_Bonds:                  13
##########                         Heavy_Atoms:                  30
##########                    Molecular_Weight:             412.442
##########                DOCK_Rotatable_Bonds:                  13
##########                       Formal_Charge:          -0.0300005
##########                     HBond_Acceptors:                   8
##########                        HBond_Donors:                   2
##########                         Heavy_Atoms:                  30
##########                          Grid_Score:          -36.735672
##########                     Grid_vdw_energy:          -37.426060
##########                      Grid_es_energy:            0.690387
##########           Internal_energy_repulsive:            7.484530

@<TRIPOS>MOLECULE
ZINC000004598904
 54 55 1 0 0
SMALL
USER_CHARGES


@<TRIPOS>ATOM
      1 C1          4.9362   -0.1760   43.2806 C.3     1  ZINC000004598904   -0.1500
      2 C2          3.4957    0.1321   42.8672 C.3     1  ZINC000004598904    0.0600
      3 O3          2.6625    0.2296   44.0522 O.3     1  ZINC000004598904   -0.3500
      4 C4          1.3561    0.4990   43.8610 C.2     1  ZINC000004598904    0.5100
      5 O5          0.9251    0.6485   42.7348 O.2     1  ZINC000004598904   -0.5100
      6 C6          0.4495    0.6126   45.0186 C.ar    1  ZINC000004598904   -0.1500
      7 C7         -0.8789    1.0067   44.8322 C.ar    1  ZINC000004598904   -0.0400
      8 C8         -1.7221    1.1117   45.9150 C.ar    1  ZINC000004598904   -0.1400
      9 C9         -1.2540    0.8263   47.1939 C.ar    1  ZINC000004598904    0.1800
     10 N10        -2.1111    0.9333   48.2882 N.am    1  ZINC000004598904   -0.6700
     11 C11        -2.0735    2.0314   49.0687 C.2     1  ZINC000004598904    0.5200
     12 O12        -1.2943    2.9265   48.8190 O.2     1  ZINC000004598904   -0.5100
     13 C13        -3.0001    2.1471   50.2516 C.3     1  ZINC000004598904   -0.1300
     14 C14        -4.2242    2.9778   49.8612 C.3     1  ZINC000004598904   -0.1300
     15 C15        -5.4568    2.3832   50.4921 C.2     1  ZINC000004598904    0.5200
     16 O16        -6.5152    2.4133   49.9007 O.2     1  ZINC000004598904   -0.5100
     17 N17        -5.3831    1.8179   51.7133 N.am    1  ZINC000004598904   -0.6700
     18 C18        -6.5235    1.2678   52.2968 C.ar    1  ZINC000004598904    0.1800
     19 C19        -7.2570    2.0077   53.2193 C.ar    1  ZINC000004598904   -0.1400
     20 C20        -8.3835    1.4678   53.7973 C.ar    1  ZINC000004598904   -0.0300
     21 C21        -8.7907    0.1746   53.4563 C.ar    1  ZINC000004598904   -0.1500
     22 C22        -9.9972   -0.4071   54.0732 C.2     1  ZINC000004598904    0.5100
     23 O23       -11.0896    0.0702   53.8388 O.2     1  ZINC000004598904   -0.5100
     24 O24        -9.8881   -1.4681   54.8968 O.3     1  ZINC000004598904   -0.3600
     25 C25       -10.9368   -1.6459   55.8851 C.3     1  ZINC000004598904    0.0600
     26 C26       -10.5635   -2.7951   56.8237 C.3     1  ZINC000004598904   -0.1500
     27 C27        -8.0516   -0.5658   52.5288 C.ar    1  ZINC000004598904   -0.0400
     28 C28        -6.9289   -0.0177   51.9511 C.ar    1  ZINC000004598904   -0.1600
     29 C29         0.0675    0.4338   47.3832 C.ar    1  ZINC000004598904   -0.1600
     30 C30         0.9149    0.3211   46.3043 C.ar    1  ZINC000004598904   -0.0300
     31 H31         4.9643   -1.1209   43.8233 H       1  ZINC000004598904    0.0700
     32 H32         5.5618   -0.2492   42.3909 H       1  ZINC000004598904    0.0800
     33 H33         5.3088    0.6227   43.9220 H       1  ZINC000004598904    0.0700
     34 H34         3.4676    1.0770   42.3244 H       1  ZINC000004598904    0.0700
     35 H35         3.1231   -0.6666   42.2257 H       1  ZINC000004598904    0.0700
     36 H36        -1.2428    1.2287   43.8399 H       1  ZINC000004598904    0.1400
     37 H37        -2.7483    1.4164   45.7718 H       1  ZINC000004598904    0.1400
     38 H38        -2.7344    0.2174   48.4879 H       1  ZINC000004598904    0.4200
     39 H39        -3.3199    1.1522   50.5612 H       1  ZINC000004598904    0.1100
     40 H40        -2.4783    2.6340   51.0756 H       1  ZINC000004598904    0.1100
     41 H41        -4.0949    4.0019   50.2114 H       1  ZINC000004598904    0.1100
     42 H42        -4.3340    2.9757   48.7768 H       1  ZINC000004598904    0.1100
     43 H43        -4.5365    1.7938   52.1862 H       1  ZINC000004598904    0.4200
     44 H44        -6.9418    3.0067   53.4822 H       1  ZINC000004598904    0.1400
     45 H45        -8.9518    2.0423   54.5137 H       1  ZINC000004598904    0.1400
     46 H46       -11.0518   -0.7283   56.4620 H       1  ZINC000004598904    0.0700
     47 H47       -11.8751   -1.8784   55.3814 H       1  ZINC000004598904    0.0700
     48 H48       -11.3508   -2.9286   57.5656 H       1  ZINC000004598904    0.0800
     49 H49       -10.4485   -3.7127   56.2467 H       1  ZINC000004598904    0.0700
     50 H50        -9.6253   -2.5626   57.3274 H       1  ZINC000004598904    0.0700
     51 H51        -8.3631   -1.5652   52.2633 H       1  ZINC000004598904    0.1400
     52 H52        -6.3576   -0.5888   51.2341 H       1  ZINC000004598904    0.1400
     53 H53         0.4275    0.2131   48.3771 H       1  ZINC000004598904    0.1400
     54 H54         1.9405    0.0165   46.4518 H       1  ZINC000004598904    0.1400
@<TRIPOS>BOND
     1     1     2    1
     2     1    31    1
     3     1    32    1
     4     1    33    1
     5     2     3    1
     6     2    34    1
     7     2    35    1
     8     3     4    1
     9     4     5    2
    10     4     6    1
    11     6    30   ar
    12     6     7   ar
    13     7     8   ar
    14     7    36    1
    15     8     9   ar
    16     8    37    1
    17     9    10    1
    18     9    29   ar
    19    10    11   am
    20    10    38    1
    21    11    12    2
    22    11    13    1
    23    13    14    1
    24    13    39    1
    25    13    40    1
    26    14    15    1
    27    14    41    1
    28    14    42    1
    29    15    16    2
    30    15    17   am
    31    17    18    1
    32    17    43    1
    33    18    28   ar
    34    18    19   ar
    35    19    20   ar
    36    19    44    1
    37    20    21   ar
    38    20    45    1
    39    21    22    1
    40    21    27   ar
    41    22    23    2
    42    22    24    1
    43    24    25    1
    44    25    26    1
    45    25    46    1
    46    25    47    1
    47    26    48    1
    48    26    49    1
    49    26    50    1
    50    27    28   ar
    51    27    51    1
    52    28    52    1
    53    29    30   ar
    54    29    53    1
    55    30    54    1
@<TRIPOS>SUBSTRUCTURE
     1 ZINC000004598904        1 TEMP              0 ****  ****    0 ROOT


##########                                Name:    ZINC000859608860
##########                DOCK_Rotatable_Bonds:                   8
##########                         Heavy_Atoms:                  24
##########                    Molecular_Weight:             394.268
##########                DOCK_Rotatable_Bonds:                   8
##########                       Formal_Charge:          -0.0200003
##########                     HBond_Acceptors:                   6
##########                        HBond_Donors:                   1
##########                         Heavy_Atoms:                  24
##########                          Grid_Score:          -36.670490
##########                     Grid_vdw_energy:          -36.787880
##########                      Grid_es_energy:            0.117389
##########           Internal_energy_repulsive:            9.368371

@<TRIPOS>MOLECULE
ZINC000859608860
 44 45 1 0 0
SMALL
USER_CHARGES


@<TRIPOS>ATOM
      1 C1         -0.9848   -0.5263   46.6833 C.3     1  ZINC000859608860   -0.1400
      2 C2         -0.0996   -0.0225   47.8251 C.3     1  ZINC000859608860   -0.0800
      3 C3         -0.5480   -0.6645   49.1394 C.3     1  ZINC000859608860   -0.1400
      4 C4          1.3569   -0.3981   47.5449 C.3     1  ZINC000859608860   -0.1400
      5 C5         -0.2224    1.4987   47.9325 C.3     1  ZINC000859608860    0.1300
      6 N6         -1.6375    1.8703   48.0072 N.am    1  ZINC000859608860   -0.7300
      7 C7         -2.1875    2.1938   49.1943 C.2     1  ZINC000859608860    0.5100
      8 O8         -1.5113    2.1759   50.2009 O.2     1  ZINC000859608860   -0.5100
      9 C9         -3.6427    2.5778   49.2709 C.3     1  ZINC000859608860    0.0500
     10 O10        -4.3456    1.6421   50.1305 O.3     1  ZINC000859608860   -0.3100
     11 C11        -5.6355    1.9171   50.4088 C.2     1  ZINC000859608860    0.5600
     12 O12        -6.1309    2.9592   50.0267 O.2     1  ZINC000859608860   -0.5100
     13 C13        -6.4440    0.9557   51.1753 C.2     1  ZINC000859608860   -0.0400
     14 C14        -7.3359    1.2592   52.1634 C.2     1  ZINC000859608860    0.0500
     15 N15        -7.8567    0.0796   52.5979 N.pl3   1  ZINC000859608860   -0.4100
     16 C16        -8.8154   -0.0805   53.6088 C.ar    1  ZINC000859608860    0.1400
     17 C17        -9.9598   -0.8291   53.3695 C.ar    1  ZINC000859608860   -0.1200
     18 C18       -10.9023   -0.9857   54.3669 C.ar    1  ZINC000859608860   -0.0600
     19 C19       -10.7066   -0.3972   55.6037 C.ar    1  ZINC000859608860   -0.1000
     20 Br20      -11.9991   -0.6136   56.9670 Br      1  ZINC000859608860   -0.0300
     21 C21        -9.5668    0.3490   55.8449 C.ar    1  ZINC000859608860   -0.0600
     22 C22        -8.6190    0.5046   54.8524 C.ar    1  ZINC000859608860   -0.1200
     23 C23        -7.2784   -0.9171   51.8732 C.2     1  ZINC000859608860    0.2000
     24 N24        -6.4425   -0.3938   51.0240 N.2     1  ZINC000859608860   -0.4300
     25 H25        -2.0225   -0.2588   46.8829 H       1  ZINC000859608860    0.0500
     26 H26        -0.6653   -0.0690   45.7469 H       1  ZINC000859608860    0.0600
     27 H27        -0.8973   -1.6101   46.6068 H       1  ZINC000859608860    0.0600
     28 H28        -0.4605   -1.7482   49.0629 H       1  ZINC000859608860    0.0600
     29 H29         0.0827   -0.3057   49.9528 H       1  ZINC000859608860    0.0600
     30 H30        -1.5857   -0.3970   49.3390 H       1  ZINC000859608860    0.0500
     31 H31         1.6764    0.0593   46.6085 H       1  ZINC000859608860    0.0600
     32 H32         1.9875   -0.0392   48.3582 H       1  ZINC000859608860    0.0600
     33 H33         1.4444   -1.4819   47.4683 H       1  ZINC000859608860    0.0600
     34 H34         0.2914    1.8422   48.8303 H       1  ZINC000859608860    0.0700
     35 H35         0.2292    1.9625   47.0555 H       1  ZINC000859608860    0.0700
     36 H36        -2.1786    1.8835   47.2023 H       1  ZINC000859608860    0.4000
     37 H37        -3.7319    3.5843   49.6798 H       1  ZINC000859608860    0.1000
     38 H38        -4.0785    2.5515   48.2722 H       1  ZINC000859608860    0.1000
     39 H39        -7.5807    2.2453   52.5297 H       1  ZINC000859608860    0.2000
     40 H40       -10.1131   -1.2883   52.4041 H       1  ZINC000859608860    0.1400
     41 H41       -11.7928   -1.5676   54.1810 H       1  ZINC000859608860    0.1500
     42 H42        -9.4163    0.8074   56.8111 H       1  ZINC000859608860    0.1500
     43 H43        -7.7294    1.0872   55.0411 H       1  ZINC000859608860    0.1500
     44 H44        -7.4832   -1.9718   51.9826 H       1  ZINC000859608860    0.2200
@<TRIPOS>BOND
     1     1     2    1
     2     1    25    1
     3     1    26    1
     4     1    27    1
     5     2     3    1
     6     2     4    1
     7     2     5    1
     8     3    28    1
     9     3    29    1
    10     3    30    1
    11     4    31    1
    12     4    32    1
    13     4    33    1
    14     5     6    1
    15     5    34    1
    16     5    35    1
    17     6     7   am
    18     6    36    1
    19     7     8    2
    20     7     9    1
    21     9    10    1
    22     9    37    1
    23     9    38    1
    24    10    11    1
    25    11    12    2
    26    11    13    1
    27    13    24    1
    28    13    14    2
    29    14    15    1
    30    14    39    1
    31    15    16    1
    32    15    23    1
    33    16    22   ar
    34    16    17   ar
    35    17    18   ar
    36    17    40    1
    37    18    19   ar
    38    18    41    1
    39    19    20    1
    40    19    21   ar
    41    21    22   ar
    42    21    42    1
    43    22    43    1
    44    23    24    2
    45    23    44    1
@<TRIPOS>SUBSTRUCTURE
     1 ZINC000859608860        1 TEMP              0 ****  ****    0 ROOT


##########                                Name:    ZINC000919225759
##########                DOCK_Rotatable_Bonds:                   4
##########                         Heavy_Atoms:                  27
##########                    Molecular_Weight:             375.295
##########                DOCK_Rotatable_Bonds:                   4
##########                       Formal_Charge:                0.04
##########                     HBond_Acceptors:                  11
##########                        HBond_Donors:                   0
##########                         Heavy_Atoms:                  27
##########                          Grid_Score:          -36.638901
##########                     Grid_vdw_energy:          -36.159954
##########                      Grid_es_energy:           -0.478946
##########           Internal_energy_repulsive:            8.947946

@<TRIPOS>MOLECULE
ZINC000919225759
 40 41 1 0 0
SMALL
USER_CHARGES


@<TRIPOS>ATOM
      1 C1         -2.6551    4.0203   51.2433 C.3     1  ZINC000919225759   -0.1500
      2 C2         -3.8277    3.1319   51.5705 C.ar    1  ZINC000919225759    0.0900
      3 C3         -4.1467    2.0588   50.7363 C.ar    1  ZINC000919225759   -0.1200
      4 C4         -3.3368    1.7902   49.5304 C.2     1  ZINC000919225759    0.5200
      5 O5         -3.4644    2.4887   48.5450 O.2     1  ZINC000919225759   -0.4700
      6 O6         -2.4565    0.7704   49.5238 O.3     1  ZINC000919225759   -0.3400
      7 C7         -1.1062    1.0681   49.0807 C.3     1  ZINC000919225759    0.1400
      8 H8         -0.7709    1.9994   49.5373 H       1  ZINC000919225759    0.1100
      9 C9         -0.1708   -0.0692   49.4960 C.3     1  ZINC000919225759   -0.1700
     10 C10        -1.0896    1.2097   47.5804 C.ar    1  ZINC000919225759   -0.1000
     11 C11        -0.8166    2.4365   47.0052 C.ar    1  ZINC000919225759   -0.0400
     12 C12        -0.8013    2.5665   45.6289 C.ar    1  ZINC000919225759   -0.1100
     13 C13        -1.0586    1.4697   44.8282 C.ar    1  ZINC000919225759   -0.0500
     14 C14        -1.3307    0.2423   45.4036 C.ar    1  ZINC000919225759   -0.0400
     15 N15        -1.6068   -0.9321   44.5462 N.pl3   1  ZINC000919225759    0.0300
     16 O16        -1.5941   -0.8174   43.3337 O.2     1  ZINC000919225759   -0.1500
     17 O17        -1.8465   -2.0134   45.0531 O.2     1  ZINC000919225759   -0.1500
     18 C18        -1.3418    0.1114   46.7795 C.ar    1  ZINC000919225759   -0.0400
     19 C19        -5.2346    1.2404   51.0472 C.ar    1  ZINC000919225759    0.0500
     20 C20        -5.9862    1.4967   52.1749 C.ar    1  ZINC000919225759   -0.0600
     21 N21        -7.1395    0.6299   52.5064 N.pl3   1  ZINC000919225759    0.0300
     22 O22        -7.4238   -0.3083   51.7836 O.2     1  ZINC000919225759   -0.1300
     23 O23        -7.8042    0.8551   53.5018 O.2     1  ZINC000919225759   -0.1300
     24 C24        -5.6645    2.5620   52.9974 C.ar    1  ZINC000919225759    0.0400
     25 C25        -4.5848    3.3737   52.6981 C.ar    1  ZINC000919225759   -0.0500
     26 N26        -4.2477    4.5106   53.5841 N.pl3   1  ZINC000919225759    0.0200
     27 O27        -5.1361    5.1654   54.0993 O.2     1  ZINC000919225759   -0.1300
     28 O28        -3.0820    4.7913   53.7978 O.2     1  ZINC000919225759   -0.1200
     29 H29        -1.7378    3.5618   51.6127 H       1  ZINC000919225759    0.1200
     30 H30        -2.5873    4.1493   50.1631 H       1  ZINC000919225759    0.1200
     31 H31        -2.7922    4.9921   51.7174 H       1  ZINC000919225759    0.0900
     32 H32        -0.5060   -1.0004   49.0394 H       1  ZINC000919225759    0.0700
     33 H33         0.8429    0.1542   49.1633 H       1  ZINC000919225759    0.0900
     34 H34        -0.1828   -0.1717   50.5811 H       1  ZINC000919225759    0.0700
     35 H35        -0.6156    3.2935   47.6309 H       1  ZINC000919225759    0.1500
     36 H36        -0.5887    3.5252   45.1794 H       1  ZINC000919225759    0.1500
     37 H37        -1.0473    1.5714   43.7530 H       1  ZINC000919225759    0.1600
     38 H38        -1.5544   -0.8473   47.2291 H       1  ZINC000919225759    0.1600
     39 H39        -5.4872    0.4088   50.4060 H       1  ZINC000919225759    0.1900
     40 H40        -6.2566    2.7585   53.8791 H       1  ZINC000919225759    0.1900
@<TRIPOS>BOND
     1     1     2    1
     2     1    29    1
     3     1    30    1
     4     1    31    1
     5     2    25   ar
     6     2     3   ar
     7     3     4    1
     8     3    19   ar
     9     4     5    2
    10     4     6    1
    11     6     7    1
    12     7     8    1
    13     7     9    1
    14     7    10    1
    15     9    32    1
    16     9    33    1
    17     9    34    1
    18    10    18   ar
    19    10    11   ar
    20    11    12   ar
    21    11    35    1
    22    12    13   ar
    23    12    36    1
    24    13    14   ar
    25    13    37    1
    26    14    15    1
    27    14    18   ar
    28    15    16    2
    29    15    17    2
    30    18    38    1
    31    19    20   ar
    32    19    39    1
    33    20    21    1
    34    20    24   ar
    35    21    22    2
    36    21    23    2
    37    24    25   ar
    38    24    40    1
    39    25    26    1
    40    26    27    2
    41    26    28    2
@<TRIPOS>SUBSTRUCTURE
     1 ZINC000919225759        1 TEMP              0 ****  ****    0 ROOT


##########                                Name:    ZINC000655982608
##########                DOCK_Rotatable_Bonds:                   5
##########                         Heavy_Atoms:                  29
##########                    Molecular_Weight:             388.469
##########                DOCK_Rotatable_Bonds:                   5
##########                       Formal_Charge:          -0.0200006
##########                     HBond_Acceptors:                   6
##########                        HBond_Donors:                   0
##########                         Heavy_Atoms:                  29
##########                          Grid_Score:          -36.592670
##########                     Grid_vdw_energy:          -36.530483
##########                      Grid_es_energy:           -0.062186
##########           Internal_energy_repulsive:           49.135197

@<TRIPOS>MOLECULE
ZINC000655982608
 53 57 1 0 0
SMALL
USER_CHARGES


@<TRIPOS>ATOM
      1 C1         -1.0576    0.4182   47.9893 C.3     1  ZINC000655982608   -0.1900
      2 C2         -1.3124    1.9158   47.8065 C.3     1  ZINC000655982608    0.0800
      3 H3         -2.3786    2.0876   47.6593 H       1  ZINC000655982608    0.1000
      4 C4         -0.8415    2.6690   49.0523 C.3     1  ZINC000655982608   -0.0300
      5 C5         -2.0316    3.0162   49.9091 C.2     1  ZINC000655982608    0.2000
      6 N6         -3.2245    2.4755   49.8448 N.2     1  ZINC000655982608   -0.4800
      7 C7         -3.9537    3.0937   50.7909 C.2     1  ZINC000655982608    0.1700
      8 C8         -5.4004    2.8272   51.1179 C.3     1  ZINC000655982608   -0.0100
      9 H9         -6.0458    3.5793   50.6641 H       1  ZINC000655982608    0.1300
     10 C10        -5.8142    1.4040   50.6771 C.3     1  ZINC000655982608   -0.1400
     11 C11        -6.7596    0.9395   51.7630 C.2     1  ZINC000655982608    0.5200
     12 O12        -7.5208    0.0002   51.6664 O.2     1  ZINC000655982608   -0.5000
     13 N13        -6.6327    1.7190   52.8509 N.am    1  ZINC000655982608   -0.5600
     14 C14        -7.3728    1.5586   54.0275 C.ar    1  ZINC000655982608    0.1600
     15 C15        -7.1686    2.4166   55.1003 C.ar    1  ZINC000655982608   -0.1600
     16 C16        -7.9006    2.2557   56.2604 C.ar    1  ZINC000655982608   -0.0900
     17 C17        -8.8357    1.2414   56.3545 C.ar    1  ZINC000655982608   -0.1400
     18 C18        -9.0411    0.3852   55.2883 C.ar    1  ZINC000655982608   -0.0900
     19 C19        -8.3170    0.5449   54.1231 C.ar    1  ZINC000655982608   -0.1600
     20 C20        -5.6186    2.7606   52.6457 C.3     1  ZINC000655982608    0.1100
     21 N21        -3.1814    3.9627   51.3713 N.2     1  ZINC000655982608   -0.3700
     22 O22        -2.0713    3.9301   50.8834 O.3     1  ZINC000655982608    0.0900
     23 N23        -0.5720    2.3987   46.6333 N.3     1  ZINC000655982608   -0.4700
     24 C24         0.8877    2.3199   46.8583 C.3     1  ZINC000655982608    0.0300
     25 C25         1.4360    2.0669   45.4351 C.3     1  ZINC000655982608   -0.0800
     26 C26         0.2646    1.4071   44.7353 C.ar    1  ZINC000655982608   -0.1400
     27 C27         0.1877    0.6860   43.5627 C.ar    1  ZINC000655982608   -0.0800
     28 C28        -1.0276    0.1776   43.1398 C.ar    1  ZINC000655982608   -0.1400
     29 C29        -2.1651    0.3934   43.8955 C.ar    1  ZINC000655982608   -0.0900
     30 C30        -2.0939    1.1162   45.0684 C.ar    1  ZINC000655982608   -0.1400
     31 C31        -0.8742    1.6343   45.4995 C.ar    1  ZINC000655982608    0.1000
     32 H32        -1.6916    0.0369   48.7897 H       1  ZINC000655982608    0.0700
     33 H33        -1.2888   -0.1055   47.0618 H       1  ZINC000655982608    0.0700
     34 H34        -0.0108    0.2565   48.2467 H       1  ZINC000655982608    0.0700
     35 H35        -0.1563    2.0396   49.6201 H       1  ZINC000655982608    0.1200
     36 H36        -0.3306    3.5838   48.7522 H       1  ZINC000655982608    0.1100
     37 H37        -6.3251    1.4362   49.7147 H       1  ZINC000655982608    0.1200
     38 H38        -4.9424    0.7519   50.6257 H       1  ZINC000655982608    0.1200
     39 H39        -6.4378    3.2085   55.0276 H       1  ZINC000655982608    0.1200
     40 H40        -7.7423    2.9226   57.0950 H       1  ZINC000655982608    0.1300
     41 H41        -9.4066    1.1175   57.2628 H       1  ZINC000655982608    0.1200
     42 H42        -9.7718   -0.4064   55.3652 H       1  ZINC000655982608    0.1300
     43 H43        -8.4779   -0.1242   53.2907 H       1  ZINC000655982608    0.1500
     44 H44        -4.6903    2.4872   53.1473 H       1  ZINC000655982608    0.0900
     45 H45        -5.9814    3.7187   53.0182 H       1  ZINC000655982608    0.1000
     46 H46         1.2687    3.2598   47.2579 H       1  ZINC000655982608    0.1000
     47 H47         1.1327    1.4895   47.5203 H       1  ZINC000655982608    0.0700
     48 H48         1.6965    3.0070   44.9489 H       1  ZINC000655982608    0.0900
     49 H49         2.2947    1.3963   45.4659 H       1  ZINC000655982608    0.0800
     50 H50         1.0769    0.5182   42.9734 H       1  ZINC000655982608    0.1200
     51 H51        -1.0876   -0.3867   42.2209 H       1  ZINC000655982608    0.1200
     52 H52        -3.1133   -0.0050   43.5660 H       1  ZINC000655982608    0.1300
     53 H53        -2.9862    1.2816   45.6539 H       1  ZINC000655982608    0.1200
@<TRIPOS>BOND
     1     1     2    1
     2     1    32    1
     3     1    33    1
     4     1    34    1
     5     2     3    1
     6     2     4    1
     7     2    23    1
     8     4     5    1
     9     4    35    1
    10     4    36    1
    11     5    22    1
    12     5     6    2
    13     6     7    1
    14     7     8    1
    15     7    21    2
    16     8     9    1
    17     8    20    1
    18     8    10    1
    19    10    11    1
    20    10    37    1
    21    10    38    1
    22    11    12    2
    23    11    13   am
    24    13    14    1
    25    13    20    1
    26    14    19   ar
    27    14    15   ar
    28    15    16   ar
    29    15    39    1
    30    16    17   ar
    31    16    40    1
    32    17    18   ar
    33    17    41    1
    34    18    19   ar
    35    18    42    1
    36    19    43    1
    37    20    44    1
    38    20    45    1
    39    21    22    1
    40    23    31    1
    41    23    24    1
    42    24    25    1
    43    24    46    1
    44    24    47    1
    45    25    26    1
    46    25    48    1
    47    25    49    1
    48    26    31   ar
    49    26    27   ar
    50    27    28   ar
    51    27    50    1
    52    28    29   ar
    53    28    51    1
    54    29    30   ar
    55    29    52    1
    56    30    31   ar
    57    30    53    1
@<TRIPOS>SUBSTRUCTURE
     1 ZINC000655982608        1 TEMP              0 ****  ****    0 ROOT


##########                                Name:    ZINC000824084043
##########                DOCK_Rotatable_Bonds:                  11
##########                         Heavy_Atoms:                  27
##########                    Molecular_Weight:             382.547
##########                DOCK_Rotatable_Bonds:                  11
##########                       Formal_Charge:        -6.85453e-07
##########                     HBond_Acceptors:                   7
##########                        HBond_Donors:                   3
##########                         Heavy_Atoms:                  27
##########                          Grid_Score:          -36.504223
##########                     Grid_vdw_energy:          -36.663586
##########                      Grid_es_energy:            0.159364
##########           Internal_energy_repulsive:           18.979671

@<TRIPOS>MOLECULE
ZINC000824084043
 65 66 1 0 0
SMALL
USER_CHARGES


@<TRIPOS>ATOM
      1 C1          1.3502    0.6149   45.7128 C.3     1  ZINC000824084043   -0.1400
      2 C2          0.3884    1.6731   46.2571 C.3     1  ZINC000824084043   -0.1000
      3 C3          0.4025    2.8960   45.3378 C.3     1  ZINC000824084043   -0.1300
      4 C4         -1.0268    1.0946   46.3146 C.3     1  ZINC000824084043    0.1700
      5 H5         -0.9864    0.0720   46.6897 H       1  ZINC000824084043    0.0700
      6 C6         -1.8885    1.9467   47.2485 C.3     1  ZINC000824084043   -0.1400
      7 C7         -1.9638    1.2795   48.6233 C.3     1  ZINC000824084043    0.1300
      8 N8         -1.7644    2.2880   49.6671 N.am    1  ZINC000824084043   -0.6200
      9 C9         -0.4181    2.7903   49.9527 C.3     1  ZINC000824084043    0.0800
     10 C10        -2.8194    2.7537   50.3646 C.2     1  ZINC000824084043    0.7000
     11 O11        -2.6538    3.5896   51.2318 O.2     1  ZINC000824084043   -0.5800
     12 N12        -4.0581    2.2928   50.1007 N.am    1  ZINC000824084043   -0.7500
     13 C13        -5.2052    2.8002   50.8575 C.3     1  ZINC000824084043    0.1600
     14 C14        -6.4980    2.4888   50.0979 C.3     1  ZINC000824084043   -0.1600
     15 C15        -7.6961    2.9501   50.9306 C.3     1  ZINC000824084043   -0.0100
     16 N16        -7.7017    2.2459   52.2185 N.4     1  ZINC000824084043   -0.3800
     17 H17        -7.7178    1.2502   52.0561 H       1  ZINC000824084043    0.4200
     18 C18        -8.8945    2.6352   52.9826 C.3     1  ZINC000824084043    0.0000
     19 C19        -9.9904    1.5856   52.7871 C.3     1  ZINC000824084043   -0.1200
     20 C20        -9.4555    0.1731   53.1303 C.3     1  ZINC000824084043   -0.1400
     21 C21       -10.7485   -0.6083   53.4719 C.3     1  ZINC000824084043   -0.1200
     22 C22       -11.6205    0.4152   54.2282 C.3     1  ZINC000824084043   -0.1300
     23 C23       -11.1385    1.8101   53.7928 C.3     1  ZINC000824084043   -0.1100
     24 C24        -6.4986    2.5962   52.9830 C.3     1  ZINC000824084043    0.0000
     25 C25        -5.2545    2.1212   52.2293 C.3     1  ZINC000824084043   -0.1600
     26 N26        -1.6112    1.0991   44.9712 N.am    1  ZINC000824084043   -0.7800
     27 C27        -1.8768   -0.0660   44.3479 C.2     1  ZINC000824084043    0.6600
     28 O28        -1.6285   -1.1271   44.9032 O.co2   1  ZINC000824084043   -0.7200
     29 O29        -2.3661   -0.0622   43.2270 O.co2   1  ZINC000824084043   -0.7300
     30 H30         2.3584    1.0270   45.6718 H       1  ZINC000824084043    0.0500
     31 H31         1.3402   -0.2564   46.3677 H       1  ZINC000824084043    0.0500
     32 H32         1.0371    0.3202   44.7113 H       1  ZINC000824084043    0.0500
     33 H33         0.7015    1.9678   47.2587 H       1  ZINC000824084043    0.0500
     34 H34         0.0894    2.6013   44.3362 H       1  ZINC000824084043    0.0600
     35 H35        -0.2826    3.6499   45.7256 H       1  ZINC000824084043    0.0700
     36 H36         1.4107    3.3082   45.2968 H       1  ZINC000824084043    0.0300
     37 H37        -1.4450    2.9373   47.3492 H       1  ZINC000824084043    0.0700
     38 H38        -2.8923    2.0385   46.8338 H       1  ZINC000824084043    0.0600
     39 H39        -2.9419    0.8153   48.7488 H       1  ZINC000824084043    0.0900
     40 H40        -1.1876    0.5182   48.7007 H       1  ZINC000824084043    0.0900
     41 H41        -0.2148    3.6603   49.3282 H       1  ZINC000824084043    0.0600
     42 H42        -0.3511    3.0734   51.0031 H       1  ZINC000824084043    0.0600
     43 H43         0.3133    2.0109   49.7391 H       1  ZINC000824084043    0.0800
     44 H44        -4.1901    1.6250   49.4095 H       1  ZINC000824084043    0.4000
     45 H45        -5.1081    3.8780   50.9875 H       1  ZINC000824084043    0.1100
     46 H46        -6.4946    3.0141   49.1429 H       1  ZINC000824084043    0.1200
     47 H47        -6.5679    1.4151   49.9233 H       1  ZINC000824084043    0.0900
     48 H48        -7.6253    4.0238   51.1044 H       1  ZINC000824084043    0.1300
     49 H49        -8.6182    2.7300   50.3926 H       1  ZINC000824084043    0.1300
     50 H50        -8.6417    2.7040   54.0406 H       1  ZINC000824084043    0.1300
     51 H51        -9.2515    3.6031   52.6306 H       1  ZINC000824084043    0.1300
     52 H52       -10.3675    1.6149   51.7648 H       1  ZINC000824084043    0.1000
     53 H53        -8.9527   -0.2690   52.2703 H       1  ZINC000824084043    0.0700
     54 H54        -8.7885    0.2114   53.9916 H       1  ZINC000824084043    0.0800
     55 H55       -11.2484   -0.9357   52.5603 H       1  ZINC000824084043    0.0700
     56 H56       -10.5210   -1.4616   54.1108 H       1  ZINC000824084043    0.0800
     57 H57       -12.6688    0.2821   53.9610 H       1  ZINC000824084043    0.0700
     58 H58       -11.4905    0.2940   55.3035 H       1  ZINC000824084043    0.0700
     59 H59       -10.7745    2.3659   54.6568 H       1  ZINC000824084043    0.0700
     60 H60       -11.9529    2.3540   53.3143 H       1  ZINC000824084043    0.0800
     61 H61        -6.4534    3.6775   53.1131 H       1  ZINC000824084043    0.1300
     62 H62        -6.5368    2.1149   53.9602 H       1  ZINC000824084043    0.1300
     63 H63        -5.2986    1.0400   52.0989 H       1  ZINC000824084043    0.0900
     64 H64        -4.3623    2.3838   52.7977 H       1  ZINC000824084043    0.1200
     65 H65        -1.8069    1.9406   44.5303 H       1  ZINC000824084043    0.3600
@<TRIPOS>BOND
     1     1     2    1
     2     1    30    1
     3     1    31    1
     4     1    32    1
     5     2     3    1
     6     2     4    1
     7     2    33    1
     8     3    34    1
     9     3    35    1
    10     3    36    1
    11     4     5    1
    12     4     6    1
    13     4    26    1
    14     6     7    1
    15     6    37    1
    16     6    38    1
    17     7     8    1
    18     7    39    1
    19     7    40    1
    20     8     9    1
    21     8    10   am
    22     9    41    1
    23     9    42    1
    24     9    43    1
    25    10    11    2
    26    10    12   am
    27    12    13    1
    28    12    44    1
    29    13    25    1
    30    13    14    1
    31    13    45    1
    32    14    15    1
    33    14    46    1
    34    14    47    1
    35    15    16    1
    36    15    48    1
    37    15    49    1
    38    16    17    1
    39    16    18    1
    40    16    24    1
    41    18    19    1
    42    18    50    1
    43    18    51    1
    44    19    23    1
    45    19    20    1
    46    19    52    1
    47    20    21    1
    48    20    53    1
    49    20    54    1
    50    21    22    1
    51    21    55    1
    52    21    56    1
    53    22    23    1
    54    22    57    1
    55    22    58    1
    56    23    59    1
    57    23    60    1
    58    24    25    1
    59    24    61    1
    60    24    62    1
    61    25    63    1
    62    25    64    1
    63    26    27   am
    64    26    65    1
    65    27    28   ar
    66    27    29   ar
@<TRIPOS>SUBSTRUCTURE
     1 ZINC000824084043        1 TEMP              0 ****  ****    0 ROOT


##########                                Name:    ZINC001461256440
##########                DOCK_Rotatable_Bonds:                  13
##########                         Heavy_Atoms:                  26
##########                    Molecular_Weight:             367.445
##########                DOCK_Rotatable_Bonds:                  13
##########                       Formal_Charge:        -6.37025e-07
##########                     HBond_Acceptors:                   8
##########                        HBond_Donors:                   1
##########                         Heavy_Atoms:                  26
##########                          Grid_Score:          -36.479614
##########                     Grid_vdw_energy:          -34.660480
##########                      Grid_es_energy:           -1.819134
##########           Internal_energy_repulsive:           37.854729

@<TRIPOS>MOLECULE
ZINC001461256440
 55 55 1 0 0
SMALL
USER_CHARGES


@<TRIPOS>ATOM
      1 C1          3.2350    0.2836   46.1589 C.3     1  ZINC001461256440   -0.1500
      2 C2          2.7717   -0.1316   47.5567 C.3     1  ZINC001461256440    0.0600
      3 O3          2.0569    0.9697   48.1767 O.3     1  ZINC001461256440   -0.3600
      4 C4          1.2654    0.6726   49.2192 C.2     1  ZINC001461256440    0.4400
      5 O5          1.5146    1.1195   50.3137 O.2     1  ZINC001461256440   -0.4800
      6 C6          0.0659   -0.2188   49.0246 C.3     1  ZINC001461256440    0.1400
      7 N7         -0.7017    0.2418   47.8649 N.pl3   1  ZINC001461256440   -0.3800
      8 N8         -0.7274   -0.3616   46.6011 N.2     1  ZINC001461256440   -0.2800
      9 C9         -1.5235    0.3326   45.8287 C.2     1  ZINC001461256440    0.1000
     10 C10        -1.8377    0.0304   44.3862 C.3     1  ZINC001461256440   -0.0700
     11 C11        -2.0332    1.4017   46.5706 C.2     1  ZINC001461256440   -0.2700
     12 C12        -1.5155    1.3215   47.8268 C.2     1  ZINC001461256440    0.3100
     13 N13        -1.7711    2.1984   48.8809 N.am    1  ZINC001461256440   -0.6500
     14 C14        -3.0305    2.3598   49.3330 C.2     1  ZINC001461256440    0.5200
     15 O15        -3.9414    1.7414   48.8241 O.2     1  ZINC001461256440   -0.5000
     16 C16        -3.3069    3.3085   50.4707 C.3     1  ZINC001461256440   -0.1300
     17 C17        -4.8065    3.3185   50.7736 C.3     1  ZINC001461256440   -0.1100
     18 C18        -5.0873    4.2824   51.9281 C.3     1  ZINC001461256440   -0.1100
     19 C19        -6.5886    4.5685   52.0001 C.3     1  ZINC001461256440   -0.1200
     20 C20        -7.3396    3.2724   52.1647 C.2     1  ZINC001461256440    0.4600
     21 O21        -7.9030    2.7761   51.2181 O.2     1  ZINC001461256440   -0.5000
     22 O22        -7.3826    2.6692   53.3632 O.3     1  ZINC001461256440   -0.3500
     23 C23        -8.1769    1.4579   53.4634 C.3     1  ZINC001461256440    0.1200
     24 C24        -8.1337    0.9372   54.9015 C.3     1  ZINC001461256440   -0.1800
     25 C25        -9.6248    1.7639   53.0750 C.3     1  ZINC001461256440   -0.1400
     26 C26        -7.6091    0.3962   52.5193 C.3     1  ZINC001461256440   -0.1800
     27 H27         3.7716   -0.5431   45.6934 H       1  ZINC001461256440    0.0800
     28 H28         2.3682    0.5425   45.5508 H       1  ZINC001461256440    0.0700
     29 H29         3.8952    1.1474   46.2366 H       1  ZINC001461256440    0.0700
     30 H30         2.1114   -0.9954   47.4790 H       1  ZINC001461256440    0.0700
     31 H31         3.6385   -0.3904   48.1648 H       1  ZINC001461256440    0.0700
     32 H32         0.3980   -1.2433   48.8570 H       1  ZINC001461256440    0.1300
     33 H33        -0.5626   -0.1815   49.9143 H       1  ZINC001461256440    0.1400
     34 H34        -2.7069   -0.6250   44.3332 H       1  ZINC001461256440    0.0800
     35 H35        -2.0508    0.9599   43.8583 H       1  ZINC001461256440    0.0800
     36 H36        -0.9824   -0.4622   43.9235 H       1  ZINC001461256440    0.0700
     37 H37        -2.7187    2.1553   46.2119 H       1  ZINC001461256440    0.1800
     38 H38        -1.0424    2.6919   49.2887 H       1  ZINC001461256440    0.4100
     39 H39        -2.7596    2.9838   51.3557 H       1  ZINC001461256440    0.1000
     40 H40        -2.9856    4.3123   50.1930 H       1  ZINC001461256440    0.1000
     41 H41        -5.3538    3.6425   49.8885 H       1  ZINC001461256440    0.0800
     42 H42        -5.1276    2.3148   51.0521 H       1  ZINC001461256440    0.0800
     43 H43        -4.7577    3.8331   52.8649 H       1  ZINC001461256440    0.0700
     44 H44        -4.5474    5.2147   51.7625 H       1  ZINC001461256440    0.0700
     45 H45        -6.7943    5.2182   52.8507 H       1  ZINC001461256440    0.1100
     46 H46        -6.9092    5.0601   51.0816 H       1  ZINC001461256440    0.1100
     47 H47        -8.5382    1.6937   55.5740 H       1  ZINC001461256440    0.0600
     48 H48        -8.7301    0.0279   54.9767 H       1  ZINC001461256440    0.0700
     49 H49        -7.1023    0.7193   55.1782 H       1  ZINC001461256440    0.0800
     50 H50        -9.6555    2.1348   52.0505 H       1  ZINC001461256440    0.0700
     51 H51       -10.2210    0.8546   53.1503 H       1  ZINC001461256440    0.0800
     52 H52       -10.0293    2.5203   53.7476 H       1  ZINC001461256440    0.0700
     53 H53        -6.5776    0.1781   52.7961 H       1  ZINC001461256440    0.0800
     54 H54        -8.2054   -0.5131   52.5946 H       1  ZINC001461256440    0.0700
     55 H55        -7.6398    0.7670   51.4949 H       1  ZINC001461256440    0.0600
@<TRIPOS>BOND
     1     1     2    1
     2     1    27    1
     3     1    28    1
     4     1    29    1
     5     2     3    1
     6     2    30    1
     7     2    31    1
     8     3     4    1
     9     4     5    2
    10     4     6    1
    11     6     7    1
    12     6    32    1
    13     6    33    1
    14     7    12    1
    15     7     8    1
    16     8     9    2
    17     9    10    1
    18     9    11    1
    19    10    34    1
    20    10    35    1
    21    10    36    1
    22    11    12    2
    23    11    37    1
    24    12    13    1
    25    13    14   am
    26    13    38    1
    27    14    15    2
    28    14    16    1
    29    16    17    1
    30    16    39    1
    31    16    40    1
    32    17    18    1
    33    17    41    1
    34    17    42    1
    35    18    19    1
    36    18    43    1
    37    18    44    1
    38    19    20    1
    39    19    45    1
    40    19    46    1
    41    20    21    2
    42    20    22    1
    43    22    23    1
    44    23    24    1
    45    23    25    1
    46    23    26    1
    47    24    47    1
    48    24    48    1
    49    24    49    1
    50    25    50    1
    51    25    51    1
    52    25    52    1
    53    26    53    1
    54    26    54    1
    55    26    55    1
@<TRIPOS>SUBSTRUCTURE
     1 ZINC001461256440        1 TEMP              0 ****  ****    0 ROOT


##########                                Name:    ZINC000467185792
##########                DOCK_Rotatable_Bonds:                   9
##########                         Heavy_Atoms:                  29
##########                    Molecular_Weight:             412.513
##########                DOCK_Rotatable_Bonds:                   9
##########                       Formal_Charge:                0.04
##########                     HBond_Acceptors:                   8
##########                        HBond_Donors:                   2
##########                         Heavy_Atoms:                  29
##########                          Grid_Score:          -36.468830
##########                     Grid_vdw_energy:          -34.623283
##########                      Grid_es_energy:           -1.845547
##########           Internal_energy_repulsive:           24.009308

@<TRIPOS>MOLECULE
ZINC000467185792
 53 55 1 0 0
SMALL
USER_CHARGES


@<TRIPOS>ATOM
      1 C1        -11.6143   -0.7719   55.3883 C.3     1  ZINC000467185792   -0.1500
      2 C2        -10.7780   -1.2074   54.1833 C.3     1  ZINC000467185792   -0.1200
      3 C3         -9.6332   -0.2147   53.9716 C.3     1  ZINC000467185792    0.0600
      4 O4         -8.8354   -0.6370   52.8637 O.3     1  ZINC000467185792   -0.3100
      5 C5         -7.8098    0.1758   52.4965 C.ar    1  ZINC000467185792    0.1400
      6 C6         -7.5945    1.3682   53.1738 C.ar    1  ZINC000467185792   -0.2100
      7 C7         -6.5543    2.1950   52.8039 C.ar    1  ZINC000467185792   -0.0400
      8 C8         -5.7188    1.8320   51.7487 C.ar    1  ZINC000467185792   -0.0600
      9 C9         -4.5989    2.7187   51.3487 C.2     1  ZINC000467185792    0.1400
     10 C10        -4.4872    3.9820   51.7962 C.2     1  ZINC000467185792   -0.3000
     11 S11        -3.0339    4.6889   51.0938 S.3     1  ZINC000467185792    0.2000
     12 C12        -2.7093    3.1800   50.2456 C.2     1  ZINC000467185792    0.2800
     13 N13        -1.6272    2.9472   49.4077 N.am    1  ZINC000467185792   -0.6100
     14 C14        -1.7792    2.1845   48.3069 C.2     1  ZINC000467185792    0.5900
     15 O15        -2.8643    1.7003   48.0477 O.2     1  ZINC000467185792   -0.4900
     16 C16        -0.6306    1.9374   47.4175 C.2     1  ZINC000467185792   -0.2400
     17 C17         0.3370    0.9854   47.7322 C.2     1  ZINC000467185792    0.0800
     18 C18         0.2425    0.1718   48.9972 C.3     1  ZINC000467185792   -0.1200
     19 C19        -0.6449   -1.0504   48.7524 C.3     1  ZINC000467185792   -0.1400
     20 C20         1.3996    0.8069   46.8379 C.2     1  ZINC000467185792    0.0600
     21 C21         2.4670   -0.2130   47.1406 C.3     1  ZINC000467185792   -0.0600
     22 C22         3.4357   -0.3031   45.9597 C.3     1  ZINC000467185792   -0.1500
     23 N23         1.4736    1.5156   45.7443 N.2     1  ZINC000467185792   -0.1800
     24 N24         0.6009    2.3994   45.4244 N.am    1  ZINC000467185792   -0.4300
     25 C25        -0.4692    2.6577   46.2003 C.2     1  ZINC000467185792    0.5000
     26 O26        -1.2823    3.5038   45.8704 O.2     1  ZINC000467185792   -0.5300
     27 N27        -3.6363    2.3185   50.5300 N.2     1  ZINC000467185792   -0.5000
     28 C28        -5.9377    0.6340   51.0706 C.ar    1  ZINC000467185792   -0.0600
     29 C29        -6.9764   -0.1909   51.4488 C.ar    1  ZINC000467185792   -0.1500
     30 H30       -12.0238    0.2217   55.2062 H       1  ZINC000467185792    0.0600
     31 H31       -12.4299   -1.4790   55.5391 H       1  ZINC000467185792    0.0700
     32 H32       -10.9849   -0.7479   56.2778 H       1  ZINC000467185792    0.0600
     33 H33       -10.3684   -2.2009   54.3654 H       1  ZINC000467185792    0.0700
     34 H34       -11.4075   -1.2312   53.2938 H       1  ZINC000467185792    0.0700
     35 H35       -10.0430    0.7746   53.7681 H       1  ZINC000467185792    0.0600
     36 H36        -9.0162   -0.1748   54.8692 H       1  ZINC000467185792    0.0600
     37 H37        -8.2423    1.6489   53.9910 H       1  ZINC000467185792    0.1300
     38 H38        -6.3874    3.1228   53.3311 H       1  ZINC000467185792    0.1300
     39 H39        -5.1705    4.4780   52.4697 H       1  ZINC000467185792    0.1800
     40 H40        -0.7618    3.3334   49.6144 H       1  ZINC000467185792    0.4400
     41 H41         1.2388   -0.1562   49.2936 H       1  ZINC000467185792    0.0900
     42 H42        -0.1901    0.7819   49.7902 H       1  ZINC000467185792    0.1300
     43 H43        -1.6413   -0.7224   48.4561 H       1  ZINC000467185792    0.0600
     44 H44        -0.2124   -1.6605   47.9595 H       1  ZINC000467185792    0.0600
     45 H45        -0.7133   -1.6388   49.6674 H       1  ZINC000467185792    0.0700
     46 H46         3.0122    0.0865   48.0357 H       1  ZINC000467185792    0.1000
     47 H47         2.0038   -1.1857   47.3056 H       1  ZINC000467185792    0.1000
     48 H48         4.2077   -1.0407   46.1786 H       1  ZINC000467185792    0.0600
     49 H49         2.8905   -0.6025   45.0646 H       1  ZINC000467185792    0.0600
     50 H50         3.8989    0.6696   45.7947 H       1  ZINC000467185792    0.0600
     51 H51         0.7126    2.8934   44.5970 H       1  ZINC000467185792    0.4500
     52 H52        -5.2924    0.3502   50.2525 H       1  ZINC000467185792    0.1300
     53 H53        -7.1464   -1.1194   50.9240 H       1  ZINC000467185792    0.1400
@<TRIPOS>BOND
     1     1     2    1
     2     1    30    1
     3     1    31    1
     4     1    32    1
     5     2     3    1
     6     2    33    1
     7     2    34    1
     8     3     4    1
     9     3    35    1
    10     3    36    1
    11     4     5    1
    12     5    29   ar
    13     5     6   ar
    14     6     7   ar
    15     6    37    1
    16     7     8   ar
    17     7    38    1
    18     8     9    1
    19     8    28   ar
    20     9    27    1
    21     9    10    2
    22    10    11    1
    23    10    39    1
    24    11    12    1
    25    12    13    1
    26    12    27    2
    27    13    14   am
    28    13    40    1
    29    14    15    2
    30    14    16    1
    31    16    25    1
    32    16    17    2
    33    17    18    1
    34    17    20    1
    35    18    19    1
    36    18    41    1
    37    18    42    1
    38    19    43    1
    39    19    44    1
    40    19    45    1
    41    20    21    1
    42    20    23    2
    43    21    22    1
    44    21    46    1
    45    21    47    1
    46    22    48    1
    47    22    49    1
    48    22    50    1
    49    23    24    1
    50    24    25   am
    51    24    51    1
    52    25    26    2
    53    28    29   ar
    54    28    52    1
    55    29    53    1
@<TRIPOS>SUBSTRUCTURE
     1 ZINC000467185792        1 TEMP              0 ****  ****    0 ROOT


##########                                Name:    ZINC000766421809
##########                DOCK_Rotatable_Bonds:                   7
##########                         Heavy_Atoms:                  26
##########                    Molecular_Weight:             358.372
##########                DOCK_Rotatable_Bonds:                   7
##########                       Formal_Charge:         4.61936e-07
##########                     HBond_Acceptors:                   8
##########                        HBond_Donors:                   0
##########                         Heavy_Atoms:                  26
##########                          Grid_Score:          -36.467937
##########                     Grid_vdw_energy:          -36.518600
##########                      Grid_es_energy:            0.050662
##########           Internal_energy_repulsive:            7.124784

@<TRIPOS>MOLECULE
ZINC000766421809
 45 47 1 0 0
SMALL
USER_CHARGES


@<TRIPOS>ATOM
      1 C1          2.6313    0.9433   43.3279 C.3     1  ZINC000766421809   -0.0700
      2 C2          1.2493    0.8453   43.9208 C.2     1  ZINC000766421809    0.0700
      3 N3          0.1853    0.3847   43.3146 N.2     1  ZINC000766421809   -0.2900
      4 N4         -0.8936    0.4624   44.2046 N.pl3   1  ZINC000766421809   -0.3700
      5 C5         -2.2715    0.0496   43.9267 C.3     1  ZINC000766421809    0.1000
      6 C6         -0.4397    0.9848   45.3631 C.2     1  ZINC000766421809    0.0700
      7 C7         -1.2585    1.2473   46.6006 C.3     1  ZINC000766421809    0.1400
      8 O8         -0.6876    2.3649   47.3307 O.3     1  ZINC000766421809   -0.3400
      9 C9         -1.2840    2.7084   48.4832 C.2     1  ZINC000766421809    0.4700
     10 O10        -0.7622    3.5143   49.2167 O.2     1  ZINC000766421809   -0.5000
     11 C11        -2.6044    2.0887   48.8620 C.3     1  ZINC000766421809   -0.1100
     12 C12        -3.1548    2.7835   50.1091 C.3     1  ZINC000766421809   -0.0200
     13 C13        -4.4482    2.1282   50.5199 C.2     1  ZINC000766421809    0.1900
     14 N14        -4.8911    1.9808   51.7435 N.2     1  ZINC000766421809   -0.4700
     15 C15        -6.0784    1.3440   51.6258 C.2     1  ZINC000766421809    0.2200
     16 C16        -6.9789    0.9468   52.7362 C.ar    1  ZINC000766421809   -0.0300
     17 C17        -7.8798   -0.1022   52.5639 C.ar    1  ZINC000766421809   -0.0500
     18 C18        -8.7151   -0.4687   53.5992 C.ar    1  ZINC000766421809   -0.1500
     19 C19        -8.6593    0.2051   54.8085 C.ar    1  ZINC000766421809    0.1200
     20 F20        -9.4793   -0.1566   55.8194 F       1  ZINC000766421809   -0.1300
     21 C21        -7.7645    1.2486   54.9842 C.ar    1  ZINC000766421809   -0.1200
     22 C22        -7.7077    1.9772   56.3022 C.3     1  ZINC000766421809   -0.1200
     23 C23        -6.9222    1.6181   53.9562 C.ar    1  ZINC000766421809   -0.0600
     24 N24        -6.2843    1.1443   50.3498 N.2     1  ZINC000766421809   -0.3700
     25 O25        -5.3615    1.5934   49.7034 O.3     1  ZINC000766421809    0.0900
     26 C26         0.8839    1.2254   45.2163 C.2     1  ZINC000766421809   -0.2400
     27 H27         3.1766    0.0198   43.5227 H       1  ZINC000766421809    0.0800
     28 H28         2.5549    1.0999   42.2519 H       1  ZINC000766421809    0.0700
     29 H29         3.1622    1.7809   43.7802 H       1  ZINC000766421809    0.0800
     30 H30        -2.3990   -0.9979   44.1995 H       1  ZINC000766421809    0.0800
     31 H31        -2.9591    0.6631   44.5091 H       1  ZINC000766421809    0.0900
     32 H32        -2.4818    0.1767   42.8647 H       1  ZINC000766421809    0.0900
     33 H33        -2.2830    1.4854   46.3146 H       1  ZINC000766421809    0.0900
     34 H34        -1.2551    0.3599   47.2335 H       1  ZINC000766421809    0.0900
     35 H35        -3.3102    2.2058   48.0397 H       1  ZINC000766421809    0.1200
     36 H36        -2.4618    1.0283   49.0702 H       1  ZINC000766421809    0.1200
     37 H37        -2.4316    2.7002   50.9204 H       1  ZINC000766421809    0.1200
     38 H38        -3.3344    3.8359   49.8893 H       1  ZINC000766421809    0.1200
     39 H39        -7.9243   -0.6275   51.6212 H       1  ZINC000766421809    0.1500
     40 H40        -9.4135   -1.2816   53.4665 H       1  ZINC000766421809    0.1500
     41 H41        -6.9856    1.4888   56.9565 H       1  ZINC000766421809    0.0800
     42 H42        -7.4044    3.0105   56.1335 H       1  ZINC000766421809    0.0800
     43 H43        -8.6921    1.9593   56.7699 H       1  ZINC000766421809    0.0700
     44 H44        -6.2252    2.4315   54.0941 H       1  ZINC000766421809    0.1400
     45 H45         1.5406    1.6431   45.9651 H       1  ZINC000766421809    0.1500
@<TRIPOS>BOND
     1     1     2    1
     2     1    27    1
     3     1    28    1
     4     1    29    1
     5     2    26    1
     6     2     3    2
     7     3     4    1
     8     4     5    1
     9     4     6    1
    10     5    30    1
    11     5    31    1
    12     5    32    1
    13     6     7    1
    14     6    26    2
    15     7     8    1
    16     7    33    1
    17     7    34    1
    18     8     9    1
    19     9    10    2
    20     9    11    1
    21    11    12    1
    22    11    35    1
    23    11    36    1
    24    12    13    1
    25    12    37    1
    26    12    38    1
    27    13    25    1
    28    13    14    2
    29    14    15    1
    30    15    16    1
    31    15    24    2
    32    16    23   ar
    33    16    17   ar
    34    17    18   ar
    35    17    39    1
    36    18    19   ar
    37    18    40    1
    38    19    20    1
    39    19    21   ar
    40    21    22    1
    41    21    23   ar
    42    22    41    1
    43    22    42    1
    44    22    43    1
    45    23    44    1
    46    24    25    1
    47    26    45    1
@<TRIPOS>SUBSTRUCTURE
     1 ZINC000766421809        1 TEMP              0 ****  ****    0 ROOT


##########                                Name:    ZINC000542980334
##########                DOCK_Rotatable_Bonds:                   6
##########                         Heavy_Atoms:                  27
##########                    Molecular_Weight:             404.795
##########                DOCK_Rotatable_Bonds:                   6
##########                       Formal_Charge:           0.0300001
##########                     HBond_Acceptors:                  10
##########                        HBond_Donors:                   1
##########                         Heavy_Atoms:                  27
##########                          Grid_Score:          -36.409908
##########                     Grid_vdw_energy:          -36.620380
##########                      Grid_es_energy:            0.210473
##########           Internal_energy_repulsive:           14.376369

@<TRIPOS>MOLECULE
ZINC000542980334
 44 46 1 0 0
SMALL
USER_CHARGES


@<TRIPOS>ATOM
      1 O1         -1.9487    3.5108   49.5979 O.2     1  ZINC000542980334   -0.5800
      2 C2         -2.7336    2.6031   49.7938 C.2     1  ZINC000542980334    0.7100
      3 N3         -2.3677    1.3302   49.5442 N.am    1  ZINC000542980334   -0.7400
      4 C4         -1.0264    1.0407   49.0313 C.3     1  ZINC000542980334    0.1800
      5 C5         -1.1114    0.7015   47.5654 C.ar    1  ZINC000542980334   -0.1400
      6 C6         -1.0947    1.7113   46.6189 C.ar    1  ZINC000542980334    0.1300
      7 F7         -1.0022    3.0016   47.0086 F       1  ZINC000542980334   -0.1200
      8 C8         -1.1724    1.3983   45.2721 C.ar    1  ZINC000542980334   -0.1500
      9 C9         -1.2666    0.0784   44.8738 C.ar    1  ZINC000542980334   -0.0700
     10 C10        -1.2833   -0.9301   45.8191 C.ar    1  ZINC000542980334   -0.1200
     11 C11        -1.2004   -0.6195   47.1648 C.ar    1  ZINC000542980334    0.0100
     12 Cl12       -1.2209   -1.8868   48.3510 Cl      1  ZINC000542980334   -0.0400
     13 N13        -3.9676    2.8694   50.2658 N.am    1  ZINC000542980334   -0.6300
     14 C14        -4.3809    4.2519   50.5426 C.3     1  ZINC000542980334    0.1100
     15 C15        -4.8960    4.3334   51.9830 C.3     1  ZINC000542980334   -0.1300
     16 C16        -6.0015    3.2945   52.1847 C.3     1  ZINC000542980334   -0.1300
     17 C17        -5.4343    1.8921   51.9532 C.3     1  ZINC000542980334    0.1400
     18 H18        -4.6106    1.7140   52.6446 H       1  ZINC000542980334    0.1100
     19 N19        -6.4852    0.8964   52.1781 N.pl3   1  ZINC000542980334   -0.3400
     20 C20        -6.5394   -0.3374   51.6339 C.2     1  ZINC000542980334    0.0600
     21 C21        -7.6615   -0.9405   52.0903 C.2     1  ZINC000542980334   -0.2300
     22 C22        -8.3154   -0.0446   52.9425 C.2     1  ZINC000542980334   -0.0200
     23 C23        -9.6078   -0.3034   53.6730 C.3     1  ZINC000542980334    0.5600
     24 F24        -9.3318   -0.8653   54.9241 F       1  ZINC000542980334   -0.1700
     25 F25       -10.2959    0.9026   53.8449 F       1  ZINC000542980334   -0.1700
     26 F26       -10.3956   -1.1876   52.9282 F       1  ZINC000542980334   -0.1600
     27 N27        -7.6080    1.0545   53.0006 N.2     1  ZINC000542980334   -0.2300
     28 C28        -4.9272    1.7834   50.5072 C.3     1  ZINC000542980334    0.1300
     29 H29        -2.9926    0.6057   49.7042 H       1  ZINC000542980334    0.4000
     30 H30        -0.3895    1.9151   49.1655 H       1  ZINC000542980334    0.0900
     31 H31        -0.6036    0.1963   49.5757 H       1  ZINC000542980334    0.0900
     32 H32        -1.1598    2.1857   44.5331 H       1  ZINC000542980334    0.1500
     33 H33        -1.3275   -0.1652   43.8235 H       1  ZINC000542980334    0.1500
     34 H34        -1.3573   -1.9613   45.5069 H       1  ZINC000542980334    0.1500
     35 H35        -3.5279    4.9196   50.4212 H       1  ZINC000542980334    0.0800
     36 H36        -5.1747    4.5409   49.8538 H       1  ZINC000542980334    0.0800
     37 H37        -4.0774    4.1324   52.6741 H       1  ZINC000542980334    0.0800
     38 H38        -5.2949    5.3302   52.1708 H       1  ZINC000542980334    0.0900
     39 H39        -6.3868    3.3671   53.2018 H       1  ZINC000542980334    0.0800
     40 H40        -6.8088    3.4811   51.4766 H       1  ZINC000542980334    0.0800
     41 H41        -5.8168   -0.7664   50.9555 H       1  ZINC000542980334    0.1900
     42 H42        -7.9938   -1.9372   51.8402 H       1  ZINC000542980334    0.1600
     43 H43        -5.7671    1.8707   49.8179 H       1  ZINC000542980334    0.0800
     44 H44        -4.4331    0.8224   50.3645 H       1  ZINC000542980334    0.1100
@<TRIPOS>BOND
     1     1     2    2
     2     2     3   am
     3     2    13   am
     4     3     4    1
     5     3    29    1
     6     4     5    1
     7     4    30    1
     8     4    31    1
     9     5    11   ar
    10     5     6   ar
    11     6     7    1
    12     6     8   ar
    13     8     9   ar
    14     8    32    1
    15     9    10   ar
    16     9    33    1
    17    10    11   ar
    18    10    34    1
    19    11    12    1
    20    13    28    1
    21    13    14    1
    22    14    15    1
    23    14    35    1
    24    14    36    1
    25    15    16    1
    26    15    37    1
    27    15    38    1
    28    16    17    1
    29    16    39    1
    30    16    40    1
    31    17    18    1
    32    17    19    1
    33    17    28    1
    34    19    27    1
    35    19    20    1
    36    20    21    2
    37    20    41    1
    38    21    22    1
    39    21    42    1
    40    22    23    1
    41    22    27    2
    42    23    24    1
    43    23    25    1
    44    23    26    1
    45    28    43    1
    46    28    44    1
@<TRIPOS>SUBSTRUCTURE
     1 ZINC000542980334        1 TEMP              0 ****  ****    0 ROOT


##########                                Name:    ZINC000464139057
##########                DOCK_Rotatable_Bonds:                   9
##########                         Heavy_Atoms:                  30
##########                    Molecular_Weight:              413.56
##########                DOCK_Rotatable_Bonds:                   9
##########                       Formal_Charge:         2.38419e-07
##########                     HBond_Acceptors:                   6
##########                        HBond_Donors:                   2
##########                         Heavy_Atoms:                  30
##########                          Grid_Score:          -36.398376
##########                     Grid_vdw_energy:          -35.805138
##########                      Grid_es_energy:           -0.593237
##########           Internal_energy_repulsive:           14.729166

@<TRIPOS>MOLECULE
ZINC000464139057
 65 67 1 0 0
SMALL
USER_CHARGES


@<TRIPOS>ATOM
      1 C1        -10.7300    2.4224   56.8065 C.3     1  ZINC000464139057   -0.1800
      2 C2         -9.8125    1.4240   57.5150 C.3     1  ZINC000464139057    0.0700
      3 H3        -10.2909    1.0762   58.4306 H       1  ZINC000464139057    0.1200
      4 C4         -9.5450    0.2299   56.5916 C.3     1  ZINC000464139057    0.0800
      5 N5         -8.7369    0.6953   55.4534 N.am    1  ZINC000464139057   -0.6100
      6 C6         -9.1006    0.4191   54.1853 C.2     1  ZINC000464139057    0.5600
      7 O7        -10.1094   -0.2231   53.9685 O.2     1  ZINC000464139057   -0.5300
      8 C8         -8.2723    0.8976   53.0579 C.ar    1  ZINC000464139057   -0.1200
      9 C9         -8.2301    2.2576   52.7469 C.ar    1  ZINC000464139057   -0.0900
     10 C10        -7.4549    2.6975   51.6939 C.ar    1  ZINC000464139057   -0.1000
     11 C11        -6.7207    1.7937   50.9466 C.ar    1  ZINC000464139057   -0.0900
     12 C12        -5.8765    2.2814   49.7974 C.3     1  ZINC000464139057    0.1800
     13 N13        -4.7090    2.9968   50.3183 N.am    1  ZINC000464139057   -0.7400
     14 C14        -3.5385    2.9519   49.6517 C.2     1  ZINC000464139057    0.7000
     15 O15        -3.4519    2.3189   48.6172 O.2     1  ZINC000464139057   -0.5900
     16 N16        -2.4640    3.6087   50.1318 N.am    1  ZINC000464139057   -0.7500
     17 C17        -1.1912    3.5584   49.4081 C.3     1  ZINC000464139057    0.1400
     18 C18        -0.2456    2.5792   50.1067 C.3     1  ZINC000464139057   -0.0900
     19 C19        -0.0798    1.3469   49.2553 C.2     1  ZINC000464139057   -0.1200
     20 C20        -0.9539    0.3937   49.3245 C.2     1  ZINC000464139057   -0.1500
     21 C21        -0.7993   -0.8495   48.4748 C.3     1  ZINC000464139057   -0.0900
     22 C22        -1.1006   -0.4868   47.0190 C.3     1  ZINC000464139057   -0.1100
     23 C23         0.1412    0.0511   46.3304 C.3     1  ZINC000464139057   -0.1200
     24 C24         0.6143    1.3842   46.8825 C.3     1  ZINC000464139057   -0.1100
     25 C25         1.1043    1.2327   48.3191 C.3     1  ZINC000464139057   -0.0800
     26 C26        -6.7578    0.4443   51.2498 C.ar    1  ZINC000464139057   -0.1000
     27 C27        -7.5247   -0.0081   52.3036 C.ar    1  ZINC000464139057   -0.0700
     28 C28        -7.5200    1.4713   55.7405 C.3     1  ZINC000464139057    0.0700
     29 C29        -7.8861    2.6049   56.7054 C.3     1  ZINC000464139057    0.0700
     30 H30        -8.5327    3.3206   56.1977 H       1  ZINC000464139057    0.0700
     31 C31        -6.6111    3.3100   57.1726 C.3     1  ZINC000464139057   -0.1500
     32 O32        -8.5725    2.0592   57.8357 O.3     1  ZINC000464139057   -0.3700
     33 H33       -10.2510    2.7698   55.8910 H       1  ZINC000464139057    0.0600
     34 H34       -11.6745    1.9370   56.5608 H       1  ZINC000464139057    0.0700
     35 H35       -10.9182    3.2721   57.4630 H       1  ZINC000464139057    0.0700
     36 H36        -9.0013   -0.5415   57.1371 H       1  ZINC000464139057    0.0800
     37 H37       -10.4909   -0.1733   56.2297 H       1  ZINC000464139057    0.1000
     38 H38        -8.8033    2.9639   53.3290 H       1  ZINC000464139057    0.1300
     39 H39        -7.4213    3.7496   51.4522 H       1  ZINC000464139057    0.1300
     40 H40        -5.5454    1.4300   49.2028 H       1  ZINC000464139057    0.0800
     41 H41        -6.4656    2.9533   49.1732 H       1  ZINC000464139057    0.0800
     42 H42        -4.7783    3.5028   51.1430 H       1  ZINC000464139057    0.4000
     43 H43        -2.5334    4.1147   50.9565 H       1  ZINC000464139057    0.4000
     44 H44        -1.3676    3.2258   48.3852 H       1  ZINC000464139057    0.0700
     45 H45        -0.7412    4.5511   49.3950 H       1  ZINC000464139057    0.0700
     46 H46         0.7251    3.0532   50.2529 H       1  ZINC000464139057    0.0700
     47 H47        -0.6625    2.2990   51.0741 H       1  ZINC000464139057    0.0800
     48 H48        -1.7976    0.4861   49.9925 H       1  ZINC000464139057    0.1100
     49 H49         0.2216   -1.2228   48.5551 H       1  ZINC000464139057    0.0700
     50 H50        -1.4986   -1.6137   48.8139 H       1  ZINC000464139057    0.0700
     51 H51        -1.4465   -1.3760   46.4919 H       1  ZINC000464139057    0.0600
     52 H52        -1.8826    0.2720   46.9927 H       1  ZINC000464139057    0.0600
     53 H53         0.9446   -0.6772   46.4417 H       1  ZINC000464139057    0.0600
     54 H54        -0.0729    0.1699   45.2683 H       1  ZINC000464139057    0.0600
     55 H55         1.4284    1.7605   46.2630 H       1  ZINC000464139057    0.0600
     56 H56        -0.2114    2.0954   46.8596 H       1  ZINC000464139057    0.0600
     57 H57         1.8253    2.0184   48.5446 H       1  ZINC000464139057    0.0700
     58 H58         1.5720    0.2562   48.4451 H       1  ZINC000464139057    0.0700
     59 H59        -6.1821   -0.2560   50.6628 H       1  ZINC000464139057    0.1300
     60 H60        -7.5527   -1.0617   52.5395 H       1  ZINC000464139057    0.1300
     61 H61        -6.7724    0.8250   56.2003 H       1  ZINC000464139057    0.0800
     62 H62        -7.1248    1.8902   54.8151 H       1  ZINC000464139057    0.1000
     63 H63        -6.0872    3.7223   56.3104 H       1  ZINC000464139057    0.0800
     64 H64        -6.8721    4.1158   57.8586 H       1  ZINC000464139057    0.0700
     65 H65        -5.9658    2.5942   57.6817 H       1  ZINC000464139057    0.0700
@<TRIPOS>BOND
     1     1     2    1
     2     1    33    1
     3     1    34    1
     4     1    35    1
     5     2     3    1
     6     2    32    1
     7     2     4    1
     8     4     5    1
     9     4    36    1
    10     4    37    1
    11     5     6   am
    12     5    28    1
    13     6     7    2
    14     6     8    1
    15     8    27   ar
    16     8     9   ar
    17     9    10   ar
    18     9    38    1
    19    10    11   ar
    20    10    39    1
    21    11    12    1
    22    11    26   ar
    23    12    13    1
    24    12    40    1
    25    12    41    1
    26    13    14   am
    27    13    42    1
    28    14    15    2
    29    14    16   am
    30    16    17    1
    31    16    43    1
    32    17    18    1
    33    17    44    1
    34    17    45    1
    35    18    19    1
    36    18    46    1
    37    18    47    1
    38    19    25    1
    39    19    20    2
    40    20    21    1
    41    20    48    1
    42    21    22    1
    43    21    49    1
    44    21    50    1
    45    22    23    1
    46    22    51    1
    47    22    52    1
    48    23    24    1
    49    23    53    1
    50    23    54    1
    51    24    25    1
    52    24    55    1
    53    24    56    1
    54    25    57    1
    55    25    58    1
    56    26    27   ar
    57    26    59    1
    58    27    60    1
    59    28    29    1
    60    28    61    1
    61    28    62    1
    62    29    30    1
    63    29    31    1
    64    29    32    1
    65    31    63    1
    66    31    64    1
    67    31    65    1
@<TRIPOS>SUBSTRUCTURE
     1 ZINC000464139057        1 TEMP              0 ****  ****    0 ROOT


##########                                Name:    ZINC000027473870
##########                DOCK_Rotatable_Bonds:                  10
##########                         Heavy_Atoms:                  31
##########                    Molecular_Weight:             422.502
##########                DOCK_Rotatable_Bonds:                  10
##########                       Formal_Charge:        -7.45058e-08
##########                     HBond_Acceptors:                   7
##########                        HBond_Donors:                   1
##########                         Heavy_Atoms:                  31
##########                          Grid_Score:          -36.362667
##########                     Grid_vdw_energy:          -36.150219
##########                      Grid_es_energy:           -0.212449
##########           Internal_energy_repulsive:           20.365904

@<TRIPOS>MOLECULE
ZINC000027473870
 58 60 1 0 0
SMALL
USER_CHARGES


@<TRIPOS>ATOM
      1 C1         -7.8455    2.4483   55.3463 C.3     1  ZINC000027473870   -0.1400
      2 C2         -8.5771    2.4342   54.0026 C.3     1  ZINC000027473870   -0.0800
      3 C3         -8.0834    1.2764   53.1740 C.2     1  ZINC000027473870    0.1700
      4 C4         -6.9274    1.2451   52.4195 C.2     1  ZINC000027473870   -0.2900
      5 C5         -5.9472    2.3366   52.2749 C.2     1  ZINC000027473870    0.6000
      6 O6         -5.3327    2.7346   53.2459 O.2     1  ZINC000027473870   -0.5400
      7 N7         -5.7319    2.8934   51.0665 N.am    1  ZINC000027473870   -0.7200
      8 C8         -4.7590    3.9793   50.9232 C.3     1  ZINC000027473870    0.1600
      9 C9         -3.5166    3.4549   50.2504 C.ar    1  ZINC000027473870   -0.0900
     10 C10        -3.6110    2.8325   49.0183 C.ar    1  ZINC000027473870   -0.1100
     11 C11        -2.4777    2.3498   48.3972 C.ar    1  ZINC000027473870   -0.1100
     12 C12        -1.2338    2.4909   49.0144 C.ar    1  ZINC000027473870   -0.1200
     13 C13        -0.0148    1.9764   48.3544 C.2     1  ZINC000027473870    0.5600
     14 O14         0.7335    2.7417   47.7786 O.2     1  ZINC000027473870   -0.5300
     15 N15         0.2664    0.6588   48.3913 N.am    1  ZINC000027473870   -0.6100
     16 C16        -0.6355   -0.2635   49.0854 C.3     1  ZINC000027473870    0.1100
     17 C17        -0.8529   -1.5091   48.2239 C.3     1  ZINC000027473870   -0.1700
     18 C18         1.4743    0.1491   47.7373 C.3     1  ZINC000027473870    0.0900
     19 C19         1.2845    0.1812   46.2195 C.3     1  ZINC000027473870   -0.1800
     20 C20        -1.1454    3.1202   50.2571 C.ar    1  ZINC000027473870   -0.0700
     21 C21        -2.2859    3.6030   50.8649 C.ar    1  ZINC000027473870   -0.1000
     22 C22        -6.8595   -0.0291   51.8122 C.2     1  ZINC000027473870    0.0900
     23 N23        -7.9087   -0.7105   52.1831 N.2     1  ZINC000027473870   -0.2800
     24 N24        -8.6846    0.0807   53.0376 N.pl3   1  ZINC000027473870   -0.3100
     25 C25        -9.8899   -0.3042   53.6419 C.ar    1  ZINC000027473870    0.1300
     26 C26        -9.8741   -0.9930   54.8473 C.ar    1  ZINC000027473870   -0.0900
     27 C27       -11.0623   -1.3709   55.4412 C.ar    1  ZINC000027473870   -0.1300
     28 C28       -12.2689   -1.0633   54.8351 C.ar    1  ZINC000027473870    0.1100
     29 F29       -13.4303   -1.4334   55.4177 F       1  ZINC000027473870   -0.1300
     30 C30       -12.2865   -0.3763   53.6327 C.ar    1  ZINC000027473870   -0.1400
     31 C31       -11.1006    0.0078   53.0384 C.ar    1  ZINC000027473870   -0.0700
     32 H32        -8.1378    3.3343   55.9098 H       1  ZINC000027473870    0.0700
     33 H33        -8.1081    1.5547   55.9124 H       1  ZINC000027473870    0.0700
     34 H34        -6.7694    2.4660   55.1738 H       1  ZINC000027473870    0.0500
     35 H35        -9.6485    2.3280   54.1733 H       1  ZINC000027473870    0.1200
     36 H36        -8.3842    3.3678   53.4741 H       1  ZINC000027473870    0.0800
     37 H37        -6.2212    2.5751   50.2917 H       1  ZINC000027473870    0.4000
     38 H38        -5.1908    4.7765   50.3183 H       1  ZINC000027473870    0.0800
     39 H39        -4.5019    4.3690   51.9081 H       1  ZINC000027473870    0.0800
     40 H40        -4.5742    2.7240   48.5419 H       1  ZINC000027473870    0.1300
     41 H41        -2.5528    1.8635   47.4358 H       1  ZINC000027473870    0.1500
     42 H42        -0.1949   -0.5538   50.0392 H       1  ZINC000027473870    0.0800
     43 H43        -1.5924    0.2279   49.2618 H       1  ZINC000027473870    0.0800
     44 H44        -1.5240   -2.1954   48.7404 H       1  ZINC000027473870    0.0700
     45 H45        -1.2936   -1.2189   47.2702 H       1  ZINC000027473870    0.0600
     46 H46         0.1040   -2.0005   48.0476 H       1  ZINC000027473870    0.0600
     47 H47         2.3258    0.7723   48.0103 H       1  ZINC000027473870    0.0800
     48 H48         1.6565   -0.8763   48.0591 H       1  ZINC000027473870    0.0900
     49 H49         2.0566   -0.4237   45.7439 H       1  ZINC000027473870    0.0700
     50 H50         0.3026   -0.2192   45.9675 H       1  ZINC000027473870    0.0700
     51 H51         1.3593    1.2095   45.8656 H       1  ZINC000027473870    0.0600
     52 H52        -0.1859    3.2321   50.7401 H       1  ZINC000027473870    0.1300
     53 H53        -2.2190    4.0905   51.8264 H       1  ZINC000027473870    0.1300
     54 H54        -6.0763   -0.3779   51.1554 H       1  ZINC000027473870    0.1900
     55 H55        -8.9334   -1.2334   55.3201 H       1  ZINC000027473870    0.1500
     56 H56       -11.0504   -1.9070   56.3787 H       1  ZINC000027473870    0.1500
     57 H57       -13.2285   -0.1376   53.1614 H       1  ZINC000027473870    0.1500
     58 H58       -11.1148    0.5439   52.1010 H       1  ZINC000027473870    0.1400
@<TRIPOS>BOND
     1     1     2    1
     2     1    32    1
     3     1    33    1
     4     1    34    1
     5     2     3    1
     6     2    35    1
     7     2    36    1
     8     3    24    1
     9     3     4    2
    10     4     5    1
    11     4    22    1
    12     5     6    2
    13     5     7   am
    14     7     8    1
    15     7    37    1
    16     8     9    1
    17     8    38    1
    18     8    39    1
    19     9    21   ar
    20     9    10   ar
    21    10    11   ar
    22    10    40    1
    23    11    12   ar
    24    11    41    1
    25    12    13    1
    26    12    20   ar
    27    13    14    2
    28    13    15   am
    29    15    16    1
    30    15    18    1
    31    16    17    1
    32    16    42    1
    33    16    43    1
    34    17    44    1
    35    17    45    1
    36    17    46    1
    37    18    19    1
    38    18    47    1
    39    18    48    1
    40    19    49    1
    41    19    50    1
    42    19    51    1
    43    20    21   ar
    44    20    52    1
    45    21    53    1
    46    22    23    2
    47    22    54    1
    48    23    24    1
    49    24    25    1
    50    25    31   ar
    51    25    26   ar
    52    26    27   ar
    53    26    55    1
    54    27    28   ar
    55    27    56    1
    56    28    29    1
    57    28    30   ar
    58    30    31   ar
    59    30    57    1
    60    31    58    1
@<TRIPOS>SUBSTRUCTURE
     1 ZINC000027473870        1 TEMP              0 ****  ****    0 ROOT


##########                                Name:    ZINC000004313955
##########                DOCK_Rotatable_Bonds:                   6
##########                         Heavy_Atoms:                  26
##########                    Molecular_Weight:             414.358
##########                DOCK_Rotatable_Bonds:                   6
##########                       Formal_Charge:           0.0299997
##########                     HBond_Acceptors:                   9
##########                        HBond_Donors:                   2
##########                         Heavy_Atoms:                  26
##########                          Grid_Score:          -36.322613
##########                     Grid_vdw_energy:          -33.901134
##########                      Grid_es_energy:           -2.421478
##########           Internal_energy_repulsive:           11.031178

@<TRIPOS>MOLECULE
ZINC000004313955
 47 49 1 0 0
SMALL
USER_CHARGES


@<TRIPOS>ATOM
      1 C1         -7.9307    2.7208   51.8165 C.3     1  ZINC000004313955   -0.1500
      2 C2         -6.4297    3.0177   51.8060 C.3     1  ZINC000004313955   -0.1100
      3 H3         -5.9229    2.3554   52.5077 H       1  ZINC000004313955    0.0800
      4 C4         -6.1941    4.4732   52.2161 C.3     1  ZINC000004313955   -0.1100
      5 C5         -4.6914    4.7621   52.2376 C.3     1  ZINC000004313955   -0.1100
      6 H6         -4.5234    5.7920   52.5525 H       1  ZINC000004313955    0.0900
      7 C7         -4.0024    3.8098   53.2172 C.3     1  ZINC000004313955   -0.1500
      8 C8         -4.1158    4.5564   50.8330 C.3     1  ZINC000004313955    0.1200
      9 N9         -4.4640    3.2053   50.3724 N.am    1  ZINC000004313955   -0.6000
     10 C10        -3.5083    2.3607   49.9367 C.2     1  ZINC000004313955    0.5400
     11 O11        -3.8085    1.2475   49.5605 O.2     1  ZINC000004313955   -0.5300
     12 C12        -2.0668    2.7996   49.9172 C.3     1  ZINC000004313955   -0.1400
     13 S13        -1.0138    1.3930   49.4825 S.3     1  ZINC000004313955    0.0800
     14 C14        -0.6648    1.7808   47.7995 C.2     1  ZINC000004313955    0.1100
     15 N15        -0.8660    2.9369   47.2080 N.2     1  ZINC000004313955   -0.2800
     16 N16        -0.5001    2.8728   45.9777 N.2     1  ZINC000004313955   -0.2400
     17 C17        -0.0428    1.6722   45.7081 C.2     1  ZINC000004313955    0.2500
     18 C18         0.4729    1.2006   44.4055 C.ar    1  ZINC000004313955   -0.0100
     19 C19         1.7942    1.4606   44.0394 C.ar    1  ZINC000004313955   -0.0700
     20 C20         2.2699    1.0181   42.8224 C.ar    1  ZINC000004313955   -0.1100
     21 C21         1.4395    0.3174   41.9641 C.ar    1  ZINC000004313955   -0.0100
     22 Cl22        2.0461   -0.2353   40.4342 Cl      1  ZINC000004313955   -0.0500
     23 C23         0.1275    0.0554   42.3208 C.ar    1  ZINC000004313955   -0.1100
     24 C24        -0.3588    0.4878   43.5382 C.ar    1  ZINC000004313955    0.0100
     25 Cl25       -2.0038    0.1589   43.9845 Cl      1  ZINC000004313955   -0.0100
     26 N26        -0.1292    0.9374   46.8680 N.pl3   1  ZINC000004313955   -0.3000
     27 N27         0.2370   -0.3662   47.0484 N.3     1  ZINC000004313955   -0.5800
     28 C28        -5.8737    2.7915   50.3966 C.3     1  ZINC000004313955    0.1100
     29 H29        -8.0980    1.6844   51.5232 H       1  ZINC000004313955    0.0600
     30 H30        -8.3260    2.8831   52.8192 H       1  ZINC000004313955    0.0600
     31 H31        -8.4371    3.3834   51.1146 H       1  ZINC000004313955    0.0600
     32 H32        -6.6811    5.1356   51.5004 H       1  ZINC000004313955    0.0700
     33 H33        -6.6108    4.6427   53.2090 H       1  ZINC000004313955    0.0700
     34 H34        -4.1697    2.7801   52.9013 H       1  ZINC000004313955    0.0600
     35 H35        -2.9322    4.0159   53.2322 H       1  ZINC000004313955    0.0600
     36 H36        -4.4144    3.9551   54.2158 H       1  ZINC000004313955    0.0600
     37 H37        -4.5396    5.2950   50.1527 H       1  ZINC000004313955    0.0700
     38 H38        -3.0315    4.6640   50.8631 H       1  ZINC000004313955    0.1000
     39 H39        -1.9382    3.5915   49.1792 H       1  ZINC000004313955    0.1300
     40 H40        -1.7870    3.1722   50.9025 H       1  ZINC000004313955    0.1300
     41 H41         2.4431    2.0075   44.7075 H       1  ZINC000004313955    0.1600
     42 H42         3.2924    1.2189   42.5384 H       1  ZINC000004313955    0.1500
     43 H43        -0.5154   -0.4915   41.6471 H       1  ZINC000004313955    0.1500
     44 H44         0.8875   -0.6610   46.3356 H       1  ZINC000004313955    0.3700
     45 H45         0.6213   -0.5096   47.9703 H       1  ZINC000004313955    0.3800
     46 H46        -5.9488    1.7352   50.1384 H       1  ZINC000004313955    0.0900
     47 H47        -6.4414    3.3860   49.6808 H       1  ZINC000004313955    0.0800
@<TRIPOS>BOND
     1     1     2    1
     2     1    29    1
     3     1    30    1
     4     1    31    1
     5     2     3    1
     6     2    28    1
     7     2     4    1
     8     4     5    1
     9     4    32    1
    10     4    33    1
    11     5     6    1
    12     5     7    1
    13     5     8    1
    14     7    34    1
    15     7    35    1
    16     7    36    1
    17     8     9    1
    18     8    37    1
    19     8    38    1
    20     9    10   am
    21     9    28    1
    22    10    11    2
    23    10    12    1
    24    12    13    1
    25    12    39    1
    26    12    40    1
    27    13    14    1
    28    14    26    1
    29    14    15    2
    30    15    16    1
    31    16    17    2
    32    17    18    1
    33    17    26    1
    34    18    24   ar
    35    18    19   ar
    36    19    20   ar
    37    19    41    1
    38    20    21   ar
    39    20    42    1
    40    21    22    1
    41    21    23   ar
    42    23    24   ar
    43    23    43    1
    44    24    25    1
    45    26    27    1
    46    27    44    1
    47    27    45    1
    48    28    46    1
    49    28    47    1
@<TRIPOS>SUBSTRUCTURE
     1 ZINC000004313955        1 TEMP              0 ****  ****    0 ROOT


##########                                Name:    ZINC000912668252
##########                DOCK_Rotatable_Bonds:                  10
##########                         Heavy_Atoms:                  30
##########                    Molecular_Weight:             411.433
##########                DOCK_Rotatable_Bonds:                  10
##########                       Formal_Charge:           0.0199993
##########                     HBond_Acceptors:                   8
##########                        HBond_Donors:                   2
##########                         Heavy_Atoms:                  30
##########                          Grid_Score:          -36.318638
##########                     Grid_vdw_energy:          -35.897358
##########                      Grid_es_energy:           -0.421280
##########           Internal_energy_repulsive:           15.100292

@<TRIPOS>MOLECULE
ZINC000912668252
 52 54 1 0 0
SMALL
USER_CHARGES


@<TRIPOS>ATOM
      1 C1         -7.4834    1.5752   57.8615 C.3     1  ZINC000912668252   -0.1700
      2 C2         -8.2018    1.0335   56.6241 C.3     1  ZINC000912668252    0.1100
      3 N3         -9.1240    2.0496   56.1110 N.am    1  ZINC000912668252   -0.6100
      4 C4         -9.9590    2.8164   57.0387 C.3     1  ZINC000912668252    0.1000
      5 C5        -10.8300    1.8574   57.8527 C.3     1  ZINC000912668252   -0.1800
      6 C6         -9.2040    2.2790   54.7852 C.2     1  ZINC000912668252    0.5600
      7 O7         -9.9692    3.1220   54.3595 O.2     1  ZINC000912668252   -0.5300
      8 C8         -8.3612    1.5051   53.8488 C.ar    1  ZINC000912668252   -0.1100
      9 C9         -8.7653    0.2374   53.4271 C.ar    1  ZINC000912668252   -0.1100
     10 C10        -7.9769   -0.4827   52.5526 C.ar    1  ZINC000912668252   -0.1000
     11 C11        -6.7864    0.0471   52.0915 C.ar    1  ZINC000912668252   -0.1200
     12 C12        -6.3753    1.3086   52.5054 C.ar    1  ZINC000912668252    0.1400
     13 N13        -5.1691    1.8407   52.0353 N.am    1  ZINC000912668252   -0.6700
     14 C14        -5.0711    2.2636   50.7593 C.2     1  ZINC000912668252    0.5200
     15 O15        -6.0281    2.1830   50.0185 O.2     1  ZINC000912668252   -0.4900
     16 C16        -3.7725    2.8365   50.2531 C.3     1  ZINC000912668252    0.0500
     17 O17        -3.1541    1.8967   49.3350 O.3     1  ZINC000912668252   -0.3300
     18 C18        -1.9442    2.2293   48.8413 C.2     1  ZINC000912668252    0.5400
     19 O19        -1.1902    2.9229   49.4959 O.2     1  ZINC000912668252   -0.4800
     20 C20        -1.5372    1.7537   47.5124 C.2     1  ZINC000912668252    0.0400
     21 C21        -0.2544    1.6031   47.0878 C.2     1  ZINC000912668252   -0.0900
     22 C22        -0.2943    1.1253   45.7561 C.ar    1  ZINC000912668252   -0.1000
     23 C23         0.6972    0.7927   44.8237 C.ar    1  ZINC000912668252   -0.0900
     24 C24         0.3403    0.3472   43.5822 C.ar    1  ZINC000912668252    0.0700
     25 F25         1.2980    0.0270   42.6847 F       1  ZINC000912668252   -0.1400
     26 C26        -1.0005    0.2202   43.2348 C.ar    1  ZINC000912668252   -0.1100
     27 C27        -1.9920    0.5418   44.1347 C.ar    1  ZINC000912668252   -0.1000
     28 C28        -1.6527    0.9976   45.4053 C.ar    1  ZINC000912668252    0.1100
     29 N29        -2.3969    1.3821   46.4965 N.pl3   1  ZINC000912668252   -0.5600
     30 C30        -7.1623    2.0419   53.3793 C.ar    1  ZINC000912668252   -0.0700
     31 H31        -6.7972    0.8192   58.2433 H       1  ZINC000912668252    0.0700
     32 H32        -6.9239    2.4715   57.5936 H       1  ZINC000912668252    0.0600
     33 H33        -8.2171    1.8208   58.6293 H       1  ZINC000912668252    0.0600
     34 H34        -7.4680    0.7879   55.8563 H       1  ZINC000912668252    0.0800
     35 H35        -8.7612    0.1372   56.8920 H       1  ZINC000912668252    0.0900
     36 H36        -9.3220    3.3893   57.7124 H       1  ZINC000912668252    0.0900
     37 H37       -10.5971    3.4973   56.4753 H       1  ZINC000912668252    0.0800
     38 H38       -11.7048    1.5751   57.2670 H       1  ZINC000912668252    0.0600
     39 H39       -10.2548    0.9651   58.0998 H       1  ZINC000912668252    0.0700
     40 H40       -11.1509    2.3488   58.7713 H       1  ZINC000912668252    0.0700
     41 H41        -9.6946   -0.1801   53.7854 H       1  ZINC000912668252    0.1400
     42 H42        -8.2910   -1.4636   52.2278 H       1  ZINC000912668252    0.1400
     43 H43        -6.1735   -0.5212   51.4076 H       1  ZINC000912668252    0.1300
     44 H44        -4.4038    1.9052   52.6278 H       1  ZINC000912668252    0.4200
     45 H45        -3.9671    3.7757   49.7352 H       1  ZINC000912668252    0.1100
     46 H46        -3.1028    3.0172   51.0939 H       1  ZINC000912668252    0.1100
     47 H47         0.6354    1.8114   47.6633 H       1  ZINC000912668252    0.1700
     48 H48         1.7406    0.8884   45.0854 H       1  ZINC000912668252    0.1400
     49 H49        -1.2666   -0.1335   42.2497 H       1  ZINC000912668252    0.1400
     50 H50        -3.0302    0.4405   43.8553 H       1  ZINC000912668252    0.1400
     51 H51        -3.3657    1.3924   46.5442 H       1  ZINC000912668252    0.4300
     52 H52        -6.8445    3.0224   53.7021 H       1  ZINC000912668252    0.1400
@<TRIPOS>BOND
     1     1     2    1
     2     1    31    1
     3     1    32    1
     4     1    33    1
     5     2     3    1
     6     2    34    1
     7     2    35    1
     8     3     4    1
     9     3     6   am
    10     4     5    1
    11     4    36    1
    12     4    37    1
    13     5    38    1
    14     5    39    1
    15     5    40    1
    16     6     7    2
    17     6     8    1
    18     8    30   ar
    19     8     9   ar
    20     9    10   ar
    21     9    41    1
    22    10    11   ar
    23    10    42    1
    24    11    12   ar
    25    11    43    1
    26    12    13    1
    27    12    30   ar
    28    13    14   am
    29    13    44    1
    30    14    15    2
    31    14    16    1
    32    16    17    1
    33    16    45    1
    34    16    46    1
    35    17    18    1
    36    18    19    2
    37    18    20    1
    38    20    29    1
    39    20    21    2
    40    21    22    1
    41    21    47    1
    42    22    28   ar
    43    22    23   ar
    44    23    24   ar
    45    23    48    1
    46    24    25    1
    47    24    26   ar
    48    26    27   ar
    49    26    49    1
    50    27    28   ar
    51    27    50    1
    52    28    29    1
    53    29    51    1
    54    30    52    1
@<TRIPOS>SUBSTRUCTURE
     1 ZINC000912668252        1 TEMP              0 ****  ****    0 ROOT


##########                                Name:    ZINC000465642058
##########                DOCK_Rotatable_Bonds:                  10
##########                         Heavy_Atoms:                  31
##########                    Molecular_Weight:             420.511
##########                DOCK_Rotatable_Bonds:                  10
##########                       Formal_Charge:          1.2666e-07
##########                     HBond_Acceptors:                   7
##########                        HBond_Donors:                   2
##########                         Heavy_Atoms:                  31
##########                          Grid_Score:          -36.306335
##########                     Grid_vdw_energy:          -34.944904
##########                      Grid_es_energy:           -1.361430
##########           Internal_energy_repulsive:           14.221622

@<TRIPOS>MOLECULE
ZINC000465642058
 59 62 1 0 0
SMALL
USER_CHARGES


@<TRIPOS>ATOM
      1 C1         -2.2520    5.2643   53.9081 C.3     1  ZINC000465642058   -0.1500
      2 C2         -2.2884    3.9991   53.0483 C.3     1  ZINC000465642058    0.0500
      3 O3         -3.1558    4.2067   51.9319 O.3     1  ZINC000465642058   -0.3000
      4 C4         -4.0908    3.2494   51.6903 C.ar    1  ZINC000465642058    0.1200
      5 C5         -4.9712    2.8655   52.6920 C.ar    1  ZINC000465642058   -0.1600
      6 C6         -5.9172    1.8963   52.4415 C.ar    1  ZINC000465642058   -0.1300
      7 C7         -6.0091    1.2973   51.1922 C.ar    1  ZINC000465642058    0.0700
      8 C8         -5.1199    1.6832   50.1922 C.ar    1  ZINC000465642058   -0.0700
      9 C9         -4.1735    2.6554   50.4394 C.ar    1  ZINC000465642058   -0.1100
     10 C10        -3.2169    3.0655   49.3496 C.3     1  ZINC000465642058    0.1900
     11 N11        -2.0370    2.1979   49.3835 N.am    1  ZINC000465642058   -0.7300
     12 C12        -1.2200    2.1293   48.3138 C.2     1  ZINC000465642058    0.7100
     13 O13        -1.4630    2.7866   47.3202 O.2     1  ZINC000465642058   -0.5900
     14 N14        -0.1336    1.3323   48.3456 N.am    1  ZINC000465642058   -0.6200
     15 C15         0.1601    0.5419   49.5436 C.3     1  ZINC000465642058    0.1900
     16 C16         1.0095    1.3551   50.4861 C.2     1  ZINC000465642058    0.0500
     17 N17         1.0743    2.6612   50.5275 N.2     1  ZINC000465642058   -0.2700
     18 N18         1.9738    3.0229   51.5387 N.pl3   1  ZINC000465642058   -0.4700
     19 C19         2.4446    1.8899   52.1006 C.2     1  ZINC000465642058    0.0600
     20 C20         1.8601    0.8439   51.4719 C.2     1  ZINC000465642058   -0.2600
     21 C21         0.7536    1.2565   47.1822 C.3     1  ZINC000465642058    0.1700
     22 C22         0.0275    0.5956   46.0390 C.ar    1  ZINC000465642058   -0.1100
     23 C23        -1.0135   -0.2775   46.2939 C.ar    1  ZINC000465642058   -0.0900
     24 C24        -1.6795   -0.8838   45.2451 C.ar    1  ZINC000465642058   -0.1200
     25 C25        -1.3047   -0.6168   43.9416 C.ar    1  ZINC000465642058   -0.1200
     26 C26        -0.2643    0.2570   43.6868 C.ar    1  ZINC000465642058   -0.1300
     27 C27         0.3989    0.8666   44.7353 C.ar    1  ZINC000465642058   -0.1100
     28 O28        -7.0223    0.3872   51.1552 O.3     1  ZINC000465642058   -0.3000
     29 C29        -7.3710    0.0128   52.4988 C.3     1  ZINC000465642058    0.0800
     30 H30        -6.7894   -0.8504   52.8224 H       1  ZINC000465642058    0.0900
     31 C31        -8.8699   -0.2736   52.6099 C.3     1  ZINC000465642058   -0.1500
     32 C32        -6.9870    1.2696   53.3149 C.3     1  ZINC000465642058   -0.1100
     33 H33        -3.2567    5.4896   54.2656 H       1  ZINC000465642058    0.0700
     34 H34        -1.5903    5.1060   54.7596 H       1  ZINC000465642058    0.0800
     35 H35        -1.8831    6.0985   53.3114 H       1  ZINC000465642058    0.0700
     36 H36        -1.2836    3.7739   52.6907 H       1  ZINC000465642058    0.0600
     37 H37        -2.6573    3.1649   53.6450 H       1  ZINC000465642058    0.0600
     38 H38        -4.9144    3.3261   53.6673 H       1  ZINC000465642058    0.1300
     39 H39        -5.1744    1.2219   49.2171 H       1  ZINC000465642058    0.1400
     40 H40        -3.7083    2.9730   48.3811 H       1  ZINC000465642058    0.0700
     41 H41        -2.9116    4.1003   49.5047 H       1  ZINC000465642058    0.0800
     42 H42        -1.8438    1.6726   50.1758 H       1  ZINC000465642058    0.4000
     43 H43        -0.7728    0.2705   50.0376 H       1  ZINC000465642058    0.1000
     44 H44         0.6974   -0.3629   49.2591 H       1  ZINC000465642058    0.0900
     45 H45         2.2154    3.9280   51.7905 H       1  ZINC000465642058    0.4400
     46 H46         3.1571    1.8290   52.9100 H       1  ZINC000465642058    0.1800
     47 H47         2.0259   -0.2010   51.6886 H       1  ZINC000465642058    0.1500
     48 H48         1.0546    2.2621   46.8887 H       1  ZINC000465642058    0.0900
     49 H49         1.6379    0.6725   47.4372 H       1  ZINC000465642058    0.0900
     50 H50        -1.3063   -0.4862   47.3122 H       1  ZINC000465642058    0.1300
     51 H51        -2.4923   -1.5665   45.4443 H       1  ZINC000465642058    0.1200
     52 H52        -1.8246   -1.0910   43.1224 H       1  ZINC000465642058    0.1200
     53 H53         0.0288    0.4654   42.6684 H       1  ZINC000465642058    0.1200
     54 H54         1.2117    1.5492   44.5362 H       1  ZINC000465642058    0.1200
     55 H55        -9.1301   -1.1063   51.9566 H       1  ZINC000465642058    0.0700
     56 H56        -9.1154   -0.5297   53.6405 H       1  ZINC000465642058    0.0800
     57 H57        -9.4319    0.6116   52.3118 H       1  ZINC000465642058    0.0700
     58 H58        -6.5824    0.9932   54.2885 H       1  ZINC000465642058    0.0900
     59 H59        -7.8407    1.9382   53.4252 H       1  ZINC000465642058    0.1000
@<TRIPOS>BOND
     1     1     2    1
     2     1    33    1
     3     1    34    1
     4     1    35    1
     5     2     3    1
     6     2    36    1
     7     2    37    1
     8     3     4    1
     9     4     9   ar
    10     4     5   ar
    11     5     6   ar
    12     5    38    1
    13     6    32    1
    14     6     7   ar
    15     7     8   ar
    16     7    28    1
    17     8     9   ar
    18     8    39    1
    19     9    10    1
    20    10    11    1
    21    10    40    1
    22    10    41    1
    23    11    12   am
    24    11    42    1
    25    12    13    2
    26    12    14   am
    27    14    15    1
    28    14    21    1
    29    15    16    1
    30    15    43    1
    31    15    44    1
    32    16    20    1
    33    16    17    2
    34    17    18    1
    35    18    19    1
    36    18    45    1
    37    19    20    2
    38    19    46    1
    39    20    47    1
    40    21    22    1
    41    21    48    1
    42    21    49    1
    43    22    27   ar
    44    22    23   ar
    45    23    24   ar
    46    23    50    1
    47    24    25   ar
    48    24    51    1
    49    25    26   ar
    50    25    52    1
    51    26    27   ar
    52    26    53    1
    53    27    54    1
    54    28    29    1
    55    29    30    1
    56    29    31    1
    57    29    32    1
    58    31    55    1
    59    31    56    1
    60    31    57    1
    61    32    58    1
    62    32    59    1
@<TRIPOS>SUBSTRUCTURE
     1 ZINC000465642058        1 TEMP              0 ****  ****    0 ROOT


##########                                Name:    ZINC000537799672
##########                DOCK_Rotatable_Bonds:                   9
##########                         Heavy_Atoms:                  29
##########                    Molecular_Weight:             401.478
##########                DOCK_Rotatable_Bonds:                   9
##########                       Formal_Charge:        -4.47035e-07
##########                     HBond_Acceptors:                   6
##########                        HBond_Donors:                   1
##########                         Heavy_Atoms:                  29
##########                          Grid_Score:          -36.282909
##########                     Grid_vdw_energy:          -35.237614
##########                      Grid_es_energy:           -1.045294
##########           Internal_energy_repulsive:           16.853842

@<TRIPOS>MOLECULE
ZINC000537799672
 57 59 1 0 0
SMALL
USER_CHARGES


@<TRIPOS>ATOM
      1 C1         -8.5003    4.3350   50.5285 C.3     1  ZINC000537799672    0.0300
      2 O2         -8.4402    3.0629   51.1767 O.3     1  ZINC000537799672   -0.3800
      3 C3         -7.3210    2.9085   52.0516 C.3     1  ZINC000537799672    0.1200
      4 H4         -6.9134    3.8892   52.2967 H       1  ZINC000537799672    0.0900
      5 C5         -7.7632    2.2179   53.3160 C.ar    1  ZINC000537799672   -0.1300
      6 C6         -8.9999    1.6025   53.3706 C.ar    1  ZINC000537799672   -0.0600
      7 C7         -9.4065    0.9689   54.5295 C.ar    1  ZINC000537799672   -0.1500
      8 C8         -8.5746    0.9504   55.6362 C.ar    1  ZINC000537799672    0.1000
      9 F9         -8.9708    0.3310   56.7695 F       1  ZINC000537799672   -0.1400
     10 C10        -7.3360    1.5669   55.5802 C.ar    1  ZINC000537799672   -0.1500
     11 C11        -6.9295    2.1956   54.4186 C.ar    1  ZINC000537799672   -0.0800
     12 C12        -6.2457    2.0676   51.3607 C.3     1  ZINC000537799672    0.1600
     13 H13        -6.2190    2.3128   50.2990 H       1  ZINC000537799672    0.1000
     14 C14        -6.5708    0.5824   51.5331 C.3     1  ZINC000537799672   -0.1600
     15 N15        -4.9406    2.3546   51.9612 N.am    1  ZINC000537799672   -0.7100
     16 C16        -4.2487    3.4463   51.5795 C.2     1  ZINC000537799672    0.5600
     17 O17        -4.7080    4.1936   50.7381 O.2     1  ZINC000537799672   -0.5400
     18 C18        -2.9308    3.7351   52.1843 C.ar    1  ZINC000537799672   -0.1400
     19 C19        -2.8443    4.1324   53.5194 C.ar    1  ZINC000537799672   -0.0800
     20 C20        -1.6113    4.3999   54.0778 C.ar    1  ZINC000537799672   -0.1300
     21 C21        -0.4624    4.2754   53.3173 C.ar    1  ZINC000537799672   -0.0900
     22 C22        -0.5412    3.8823   51.9929 C.ar    1  ZINC000537799672   -0.1100
     23 C23        -1.7672    3.6059   51.4241 C.ar    1  ZINC000537799672   -0.0300
     24 C24        -1.8511    3.1774   49.9817 C.3     1  ZINC000537799672    0.1100
     25 O25        -1.9221    1.7518   49.9117 O.3     1  ZINC000537799672   -0.3800
     26 C26        -1.1854    1.1859   48.8258 C.3     1  ZINC000537799672    0.0900
     27 C27        -1.0266   -0.3218   49.0449 C.3     1  ZINC000537799672   -0.1800
     28 C28        -0.3058   -0.9316   47.8399 C.3     1  ZINC000537799672    0.0600
     29 O29        -1.0452   -0.6478   46.6504 O.3     1  ZINC000537799672   -0.3800
     30 C30        -1.1850    0.7463   46.3689 C.3     1  ZINC000537799672    0.0600
     31 C31        -1.9412    1.4235   47.5149 C.3     1  ZINC000537799672   -0.1500
     32 H32        -7.5687    4.5134   49.9915 H       1  ZINC000537799672    0.0500
     33 H33        -9.3329    4.3455   49.8253 H       1  ZINC000537799672    0.0900
     34 H34        -8.6448    5.1165   51.2746 H       1  ZINC000537799672    0.0400
     35 H35        -9.6486    1.6170   52.5072 H       1  ZINC000537799672    0.1300
     36 H36       -10.3729    0.4887   54.5721 H       1  ZINC000537799672    0.1400
     37 H37        -6.6864    1.5533   56.4429 H       1  ZINC000537799672    0.1400
     38 H38        -5.9634    2.6762   54.3746 H       1  ZINC000537799672    0.1300
     39 H39        -7.5803    0.3871   51.1714 H       1  ZINC000537799672    0.0700
     40 H40        -5.8587   -0.0140   50.9627 H       1  ZINC000537799672    0.0600
     41 H41        -6.5050    0.3162   52.5880 H       1  ZINC000537799672    0.0700
     42 H42        -4.5745    1.7589   52.6335 H       1  ZINC000537799672    0.4000
     43 H43        -3.7405    4.2306   54.1139 H       1  ZINC000537799672    0.1300
     44 H44        -1.5430    4.7074   55.1109 H       1  ZINC000537799672    0.1300
     45 H45         0.5002    4.4863   53.7592 H       1  ZINC000537799672    0.1300
     46 H46         0.3594    3.7874   51.4045 H       1  ZINC000537799672    0.1400
     47 H47        -2.7424    3.6085   49.5259 H       1  ZINC000537799672    0.0800
     48 H48        -0.9662    3.5238   49.4478 H       1  ZINC000537799672    0.0800
     49 H49        -0.2021    1.6531   48.7696 H       1  ZINC000537799672    0.0600
     50 H50        -0.4417   -0.4991   49.9474 H       1  ZINC000537799672    0.0800
     51 H51        -2.0100   -0.7799   49.1512 H       1  ZINC000537799672    0.0800
     52 H52         0.6928   -0.5023   47.7583 H       1  ZINC000537799672    0.0500
     53 H53        -0.2280   -2.0109   47.9708 H       1  ZINC000537799672    0.1000
     54 H54        -0.1979    1.1976   46.2681 H       1  ZINC000537799672    0.0500
     55 H55        -1.7406    0.8757   45.4402 H       1  ZINC000537799672    0.1000
     56 H56        -2.9430    1.0005   47.5903 H       1  ZINC000537799672    0.0800
     57 H57        -2.0103    2.4943   47.3232 H       1  ZINC000537799672    0.0800
@<TRIPOS>BOND
     1     1     2    1
     2     1    32    1
     3     1    33    1
     4     1    34    1
     5     2     3    1
     6     3     4    1
     7     3     5    1
     8     3    12    1
     9     5    11   ar
    10     5     6   ar
    11     6     7   ar
    12     6    35    1
    13     7     8   ar
    14     7    36    1
    15     8     9    1
    16     8    10   ar
    17    10    11   ar
    18    10    37    1
    19    11    38    1
    20    12    13    1
    21    12    14    1
    22    12    15    1
    23    14    39    1
    24    14    40    1
    25    14    41    1
    26    15    16   am
    27    15    42    1
    28    16    17    2
    29    16    18    1
    30    18    23   ar
    31    18    19   ar
    32    19    20   ar
    33    19    43    1
    34    20    21   ar
    35    20    44    1
    36    21    22   ar
    37    21    45    1
    38    22    23   ar
    39    22    46    1
    40    23    24    1
    41    24    25    1
    42    24    47    1
    43    24    48    1
    44    25    26    1
    45    26    31    1
    46    26    27    1
    47    26    49    1
    48    27    28    1
    49    27    50    1
    50    27    51    1
    51    28    29    1
    52    28    52    1
    53    28    53    1
    54    29    30    1
    55    30    31    1
    56    30    54    1
    57    30    55    1
    58    31    56    1
    59    31    57    1
@<TRIPOS>SUBSTRUCTURE
     1 ZINC000537799672        1 TEMP              0 ****  ****    0 ROOT


##########                                Name:    ZINC001004075025
##########                DOCK_Rotatable_Bonds:                   8
##########                         Heavy_Atoms:                  25
##########                    Molecular_Weight:              349.43
##########                DOCK_Rotatable_Bonds:                   8
##########                       Formal_Charge:         -0.00999999
##########                     HBond_Acceptors:                   7
##########                        HBond_Donors:                   1
##########                         Heavy_Atoms:                  25
##########                          Grid_Score:          -36.277573
##########                     Grid_vdw_energy:          -35.524696
##########                      Grid_es_energy:           -0.752875
##########           Internal_energy_repulsive:           13.251287

@<TRIPOS>MOLECULE
ZINC001004075025
 52 54 1 0 0
SMALL
USER_CHARGES


@<TRIPOS>ATOM
      1 C1        -11.1768   -0.9484   55.0735 C.3     1  ZINC001004075025   -0.1500
      2 C2         -9.9261   -0.8914   54.1939 C.3     1  ZINC001004075025   -0.1200
      3 C3         -9.6573    0.5576   53.7829 C.3     1  ZINC001004075025    0.0800
      4 H4        -10.4138    0.8960   53.0749 H       1  ZINC001004075025    0.0700
      5 C5         -9.6397    1.4760   55.0308 C.3     1  ZINC001004075025   -0.1500
      6 C6         -8.7577    2.6485   54.5215 C.3     1  ZINC001004075025   -0.1400
      7 C7         -7.7571    1.9267   53.5934 C.3     1  ZINC001004075025    0.0700
      8 H8         -6.8228    1.7470   54.1252 H       1  ZINC001004075025    0.1100
      9 C9         -7.4958    2.7678   52.3706 C.2     1  ZINC001004075025    0.5300
     10 O10        -8.4053    3.3750   51.8464 O.2     1  ZINC001004075025   -0.5200
     11 N11        -6.2511    2.8452   51.8594 N.am    1  ZINC001004075025   -0.6500
     12 C12        -5.6115    3.5362   50.7297 C.3     1  ZINC001004075025    0.1100
     13 C13        -4.5687    2.4101   50.7015 C.3     1  ZINC001004075025   -0.1400
     14 C14        -3.1371    2.8870   50.4489 C.3     1  ZINC001004075025    0.1300
     15 N15        -2.3493    1.7890   49.8833 N.am    1  ZINC001004075025   -0.7200
     16 C16        -2.5282    1.4232   48.5985 C.2     1  ZINC001004075025    0.6000
     17 O17        -3.3425    2.0057   47.9083 O.2     1  ZINC001004075025   -0.5300
     18 C18        -1.7367    0.3173   48.0300 C.2     1  ZINC001004075025   -0.2700
     19 C19        -1.2958    0.1551   46.7393 C.2     1  ZINC001004075025    0.0700
     20 C20        -1.5261    1.0919   45.5815 C.3     1  ZINC001004075025   -0.0300
     21 C21        -0.3586    2.0758   45.4817 C.3     1  ZINC001004075025   -0.1500
     22 C22        -1.6258    0.2857   44.2850 C.3     1  ZINC001004075025   -0.1500
     23 O23        -0.6228   -0.9975   46.7143 O.3     1  ZINC001004075025    0.1000
     24 N24        -0.5907   -1.5515   47.7857 N.2     1  ZINC001004075025   -0.3500
     25 C25        -1.2187   -0.8819   48.7063 C.2     1  ZINC001004075025    0.0200
     26 C26        -4.9337    2.2811   52.1896 C.3     1  ZINC001004075025    0.1100
     27 O27        -8.3466    0.6779   53.2076 O.3     1  ZINC001004075025   -0.3400
     28 H28       -11.3683   -1.9807   55.3663 H       1  ZINC001004075025    0.0600
     29 H29       -11.0220   -0.3406   55.9649 H       1  ZINC001004075025    0.0500
     30 H30       -12.0309   -0.5645   54.5157 H       1  ZINC001004075025    0.0600
     31 H31        -9.0719   -1.2754   54.7517 H       1  ZINC001004075025    0.0800
     32 H32       -10.0809   -1.4993   53.3024 H       1  ZINC001004075025    0.0700
     33 H33       -10.6437    1.8193   55.2801 H       1  ZINC001004075025    0.0900
     34 H34        -9.1753    0.9754   55.8804 H       1  ZINC001004075025    0.0900
     35 H35        -9.3550    3.3689   53.9626 H       1  ZINC001004075025    0.0800
     36 H36        -8.2392    3.1320   55.3494 H       1  ZINC001004075025    0.0900
     37 H37        -6.2336    3.5741   49.8355 H       1  ZINC001004075025    0.0900
     38 H38        -5.1942    4.5076   50.9950 H       1  ZINC001004075025    0.0900
     39 H39        -4.8520    1.5539   50.0894 H       1  ZINC001004075025    0.1100
     40 H40        -3.1507    3.7225   49.7489 H       1  ZINC001004075025    0.0800
     41 H41        -2.6897    3.2083   51.3894 H       1  ZINC001004075025    0.0800
     42 H42        -1.6988    1.3251   50.4336 H       1  ZINC001004075025    0.4000
     43 H43        -2.4532    1.6431   45.7389 H       1  ZINC001004075025    0.1300
     44 H44         0.5685    1.5248   45.3243 H       1  ZINC001004075025    0.0600
     45 H45        -0.5252    2.7535   44.6443 H       1  ZINC001004075025    0.0700
     46 H46        -0.2876    2.6503   46.4053 H       1  ZINC001004075025    0.0600
     47 H47        -0.6987   -0.2654   44.1276 H       1  ZINC001004075025    0.0600
     48 H48        -2.4576   -0.4153   44.3561 H       1  ZINC001004075025    0.0600
     49 H49        -1.7924    0.9633   43.4477 H       1  ZINC001004075025    0.0700
     50 H50        -1.3400   -1.1520   49.7449 H       1  ZINC001004075025    0.2000
     51 H51        -4.3353    2.9188   52.8402 H       1  ZINC001004075025    0.0900
     52 H52        -4.9804    1.2490   52.5371 H       1  ZINC001004075025    0.0800
@<TRIPOS>BOND
     1     1     2    1
     2     1    28    1
     3     1    29    1
     4     1    30    1
     5     2     3    1
     6     2    31    1
     7     2    32    1
     8     3     4    1
     9     3    27    1
    10     3     5    1
    11     5     6    1
    12     5    33    1
    13     5    34    1
    14     6     7    1
    15     6    35    1
    16     6    36    1
    17     7     8    1
    18     7     9    1
    19     7    27    1
    20     9    10    2
    21     9    11   am
    22    11    26    1
    23    11    12    1
    24    12    13    1
    25    12    37    1
    26    12    38    1
    27    13    14    1
    28    13    26    1
    29    13    39    1
    30    14    15    1
    31    14    40    1
    32    14    41    1
    33    15    16   am
    34    15    42    1
    35    16    17    2
    36    16    18    1
    37    18    25    1
    38    18    19    2
    39    19    20    1
    40    19    23    1
    41    20    21    1
    42    20    22    1
    43    20    43    1
    44    21    44    1
    45    21    45    1
    46    21    46    1
    47    22    47    1
    48    22    48    1
    49    22    49    1
    50    23    24    1
    51    24    25    2
    52    25    50    1
    53    26    51    1
    54    26    52    1
@<TRIPOS>SUBSTRUCTURE
     1 ZINC001004075025        1 TEMP              0 ****  ****    0 ROOT


##########                                Name:    ZINC000821177065
##########                DOCK_Rotatable_Bonds:                  10
##########                         Heavy_Atoms:                  25
##########                    Molecular_Weight:             341.413
##########                DOCK_Rotatable_Bonds:                  10
##########                       Formal_Charge:          0.00999917
##########                     HBond_Acceptors:                   7
##########                        HBond_Donors:                   3
##########                         Heavy_Atoms:                  25
##########                          Grid_Score:          -36.237400
##########                     Grid_vdw_energy:          -33.631798
##########                      Grid_es_energy:           -2.605603
##########           Internal_energy_repulsive:           21.358721

@<TRIPOS>MOLECULE
ZINC000821177065
 48 51 1 0 0
SMALL
USER_CHARGES


@<TRIPOS>ATOM
      1 O1         -4.8594    1.3707   50.1760 O.2     1  ZINC000821177065   -0.5600
      2 C2         -4.7872    2.5703   49.9913 C.2     1  ZINC000821177065    0.7100
      3 N3         -5.8968    3.3317   50.0665 N.am    1  ZINC000821177065   -0.7300
      4 C4         -7.1908    2.7131   50.3649 C.3     1  ZINC000821177065    0.1200
      5 C5         -7.5735    3.0065   51.8170 C.3     1  ZINC000821177065    0.1900
      6 O6         -7.3477    4.3891   52.0991 O.3     1  ZINC000821177065   -0.5400
      7 C7         -9.0522    2.6772   52.0312 C.3     1  ZINC000821177065   -0.1500
      8 C8         -9.8964    3.6903   52.8070 C.3     1  ZINC000821177065   -0.1600
      9 C9        -10.0814    3.5380   51.2958 C.3     1  ZINC000821177065   -0.1700
     10 C10        -6.7193    2.1489   52.7528 C.3     1  ZINC000821177065   -0.1800
     11 C11        -7.4124    1.5169   53.9614 C.3     1  ZINC000821177065   -0.1900
     12 C12        -6.9923    0.6436   52.7775 C.3     1  ZINC000821177065   -0.1700
     13 N13        -3.5968    3.1395   49.7167 N.am    1  ZINC000821177065   -0.6500
     14 C14        -2.4426    2.3474   49.6385 C.2     1  ZINC000821177065    0.3200
     15 N15        -2.2704    1.3118   48.8514 N.2     1  ZINC000821177065   -0.3200
     16 N16        -0.9861    0.8004   49.0771 N.pl3   1  ZINC000821177065   -0.3600
     17 C17        -0.3899   -0.3563   48.4042 C.3     1  ZINC000821177065    0.1900
     18 C18        -0.7677   -0.3388   46.9454 C.ar    1  ZINC000821177065    0.1100
     19 C19        -0.5586    0.8054   46.1995 C.ar    1  ZINC000821177065   -0.1500
     20 C20        -0.9093    0.8110   44.8580 C.ar    1  ZINC000821177065   -0.0700
     21 C21        -1.4597   -0.3396   44.3150 C.ar    1  ZINC000821177065   -0.1700
     22 C22        -1.6392   -1.4465   45.1233 C.ar    1  ZINC000821177065    0.1000
     23 N23        -1.2892   -1.4175   46.3942 N.ar    1  ZINC000821177065   -0.4700
     24 C24        -0.3936    1.5601   50.0223 C.2     1  ZINC000821177065    0.0700
     25 C25        -1.2667    2.5274   50.3842 C.2     1  ZINC000821177065   -0.2600
     26 H26        -5.8385    4.2893   49.9231 H       1  ZINC000821177065    0.4000
     27 H27        -7.9510    3.1217   49.6991 H       1  ZINC000821177065    0.0700
     28 H28        -7.1207    1.6353   50.2184 H       1  ZINC000821177065    0.0800
     29 H29        -7.5622    4.6456   53.0064 H       1  ZINC000821177065    0.3800
     30 H30        -9.2838    1.6205   52.1656 H       1  ZINC000821177065    0.1100
     31 H31       -10.6836    3.3003   53.4522 H       1  ZINC000821177065    0.0900
     32 H32        -9.3984    4.5914   53.1648 H       1  ZINC000821177065    0.1100
     33 H33        -9.7050    4.3389   50.6594 H       1  ZINC000821177065    0.1000
     34 H34       -10.9903    3.0478   50.9469 H       1  ZINC000821177065    0.0900
     35 H35        -5.6869    2.4752   52.8780 H       1  ZINC000821177065    0.1100
     36 H36        -6.8361    1.4274   54.8823 H       1  ZINC000821177065    0.1000
     37 H37        -8.4771    1.7120   54.0901 H       1  ZINC000821177065    0.1100
     38 H38        -7.7805    0.2643   52.1272 H       1  ZINC000821177065    0.0900
     39 H39        -6.1395   -0.0203   52.9194 H       1  ZINC000821177065    0.1000
     40 H40        -3.5386    4.0970   49.5732 H       1  ZINC000821177065    0.4100
     41 H41         0.6951   -0.3125   48.4990 H       1  ZINC000821177065    0.1000
     42 H42        -0.7580   -1.2736   48.8638 H       1  ZINC000821177065    0.1200
     43 H43        -0.1277    1.6845   46.6557 H       1  ZINC000821177065    0.1400
     44 H44        -0.7576    1.6911   44.2505 H       1  ZINC000821177065    0.1400
     45 H45        -1.7448   -0.3709   43.2738 H       1  ZINC000821177065    0.1400
     46 H46        -2.0677   -2.3467   44.7081 H       1  ZINC000821177065    0.1600
     47 H47         0.6024    1.4227   50.4163 H       1  ZINC000821177065    0.1800
     48 H48        -1.0929    3.2973   51.1214 H       1  ZINC000821177065    0.1700
@<TRIPOS>BOND
     1     1     2    2
     2     2     3   am
     3     2    13   am
     4     3     4    1
     5     3    26    1
     6     4     5    1
     7     4    27    1
     8     4    28    1
     9     5     6    1
    10     5     7    1
    11     5    10    1
    12     6    29    1
    13     7     9    1
    14     7     8    1
    15     7    30    1
    16     8     9    1
    17     8    31    1
    18     8    32    1
    19     9    33    1
    20     9    34    1
    21    10    12    1
    22    10    11    1
    23    10    35    1
    24    11    12    1
    25    11    36    1
    26    11    37    1
    27    12    38    1
    28    12    39    1
    29    13    14    1
    30    13    40    1
    31    14    25    1
    32    14    15    2
    33    15    16    1
    34    16    17    1
    35    16    24    1
    36    17    18    1
    37    17    41    1
    38    17    42    1
    39    18    23   ar
    40    18    19   ar
    41    19    20   ar
    42    19    43    1
    43    20    21   ar
    44    20    44    1
    45    21    22   ar
    46    21    45    1
    47    22    23   ar
    48    22    46    1
    49    24    25    2
    50    24    47    1
    51    25    48    1
@<TRIPOS>SUBSTRUCTURE
     1 ZINC000821177065        1 TEMP              0 ****  ****    0 ROOT


##########                                Name:    ZINC000523863446
##########                DOCK_Rotatable_Bonds:                  10
##########                         Heavy_Atoms:                  29
##########                    Molecular_Weight:             396.533
##########                DOCK_Rotatable_Bonds:                  10
##########                       Formal_Charge:          -0.0200008
##########                     HBond_Acceptors:                   6
##########                        HBond_Donors:                   1
##########                         Heavy_Atoms:                  29
##########                          Grid_Score:          -36.234547
##########                     Grid_vdw_energy:          -35.357586
##########                      Grid_es_energy:           -0.876961
##########           Internal_energy_repulsive:           19.828688

@<TRIPOS>MOLECULE
ZINC000523863446
 61 63 1 0 0
SMALL
USER_CHARGES


@<TRIPOS>ATOM
      1 C1         -7.1097   -0.0457   52.3397 C.3     1  ZINC000523863446   -0.1700
      2 C2         -7.1174    1.4843   52.3292 C.3     1  ZINC000523863446    0.1500
      3 H3         -6.7364    1.8560   53.2804 H       1  ZINC000523863446    0.1300
      4 C4         -6.2426    1.9833   51.2082 C.2     1  ZINC000523863446    0.5100
      5 O5         -6.1016    1.3154   50.2057 O.2     1  ZINC000523863446   -0.5100
      6 N6         -5.6168    3.1717   51.3196 N.am    1  ZINC000523863446   -0.6000
      7 C7         -5.7855    3.9776   52.5313 C.3     1  ZINC000523863446    0.0700
      8 C8         -4.7677    3.6576   50.2290 C.3     1  ZINC000523863446    0.1000
      9 C9         -3.4174    2.9934   50.3096 C.2     1  ZINC000523863446    0.5000
     10 O10        -2.7838    3.0310   51.3431 O.2     1  ZINC000523863446   -0.5200
     11 N11        -2.9139    2.3577   49.2332 N.am    1  ZINC000523863446   -0.7200
     12 C12        -1.6019    1.7105   49.3120 C.3     1  ZINC000523863446    0.1900
     13 H13        -1.4843    1.2456   50.2909 H       1  ZINC000523863446    0.1000
     14 C14        -0.5041    2.7567   49.1092 C.3     1  ZINC000523863446   -0.1200
     15 C15         0.4818    2.6947   50.2775 C.3     1  ZINC000523863446   -0.0900
     16 C16         1.3911    1.4751   50.1132 C.3     1  ZINC000523863446   -0.1200
     17 C17         2.3771    1.4131   51.2815 C.3     1  ZINC000523863446   -0.1200
     18 C18         3.2275    2.6847   51.2993 C.3     1  ZINC000523863446   -0.1200
     19 C19         2.3182    3.9042   51.4636 C.3     1  ZINC000523863446   -0.1200
     20 C20         1.3323    3.9663   50.2952 C.3     1  ZINC000523863446   -0.1100
     21 C21        -1.4962    0.6570   48.2396 C.ar    1  ZINC000523863446   -0.0900
     22 C22        -1.2024   -0.6499   48.5809 C.ar    1  ZINC000523863446   -0.1100
     23 C23        -1.1055   -1.6162   47.5972 C.ar    1  ZINC000523863446   -0.1200
     24 C24        -1.3028   -1.2755   46.2720 C.ar    1  ZINC000523863446   -0.1200
     25 C25        -1.5976    0.0312   45.9307 C.ar    1  ZINC000523863446   -0.1200
     26 C26        -1.6987    0.9966   46.9149 C.ar    1  ZINC000523863446   -0.1000
     27 N27        -8.4871    1.9644   52.1306 N.pl3   1  ZINC000523863446   -0.3600
     28 C28        -8.8462    3.1000   51.4959 C.2     1  ZINC000523863446    0.0600
     29 C29       -10.1966    3.1804   51.5270 C.2     1  ZINC000523863446   -0.2700
     30 C30       -10.6794    2.0556   52.2039 C.2     1  ZINC000523863446    0.0500
     31 N31        -9.6557    1.3230   52.5608 N.2     1  ZINC000523863446   -0.2900
     32 H32        -7.4907   -0.4175   51.3885 H       1  ZINC000523863446    0.0700
     33 H33        -6.0906   -0.4029   52.4875 H       1  ZINC000523863446    0.1000
     34 H34        -7.7424   -0.4067   53.1505 H       1  ZINC000523863446    0.0800
     35 H35        -5.0159    3.7105   53.2555 H       1  ZINC000523863446    0.0700
     36 H36        -5.6967    5.0346   52.2799 H       1  ZINC000523863446    0.0800
     37 H37        -6.7695    3.7876   52.9599 H       1  ZINC000523863446    0.0800
     38 H38        -5.2332    3.4195   49.2725 H       1  ZINC000523863446    0.1100
     39 H39        -4.6473    4.7374   50.3158 H       1  ZINC000523863446    0.1100
     40 H40        -3.4201    2.3287   48.4063 H       1  ZINC000523863446    0.4000
     41 H41         0.0236    2.5537   48.1772 H       1  ZINC000523863446    0.0800
     42 H42        -0.9521    3.7494   49.0642 H       1  ZINC000523863446    0.0700
     43 H43        -0.0695    2.6131   51.2142 H       1  ZINC000523863446    0.0700
     44 H44         0.7852    0.5692   50.1005 H       1  ZINC000523863446    0.0600
     45 H45         1.9424    1.5567   49.1764 H       1  ZINC000523863446    0.0600
     46 H46         1.8257    1.3315   52.2183 H       1  ZINC000523863446    0.0600
     47 H47         3.0249    0.5443   51.1645 H       1  ZINC000523863446    0.0600
     48 H48         3.9299    2.6405   52.1316 H       1  ZINC000523863446    0.0600
     49 H49         3.7789    2.7663   50.3626 H       1  ZINC000523863446    0.0600
     50 H50         1.7668    3.8227   52.4004 H       1  ZINC000523863446    0.0600
     51 H51         2.9241    4.8102   51.4763 H       1  ZINC000523863446    0.0600
     52 H52         1.8836    4.0478   49.3586 H       1  ZINC000523863446    0.0600
     53 H53         0.6845    4.8350   50.4123 H       1  ZINC000523863446    0.0600
     54 H54        -1.0483   -0.9160   49.6162 H       1  ZINC000523863446    0.1200
     55 H55        -0.8752   -2.6371   47.8638 H       1  ZINC000523863446    0.1200
     56 H56        -1.2264   -2.0304   45.5033 H       1  ZINC000523863446    0.1200
     57 H57        -1.7514    0.2973   44.8954 H       1  ZINC000523863446    0.1200
     58 H58        -1.9289    2.0176   46.6483 H       1  ZINC000523863446    0.1200
     59 H59        -8.1759    3.8163   51.0444 H       1  ZINC000523863446    0.1700
     60 H60       -10.7958    3.9734   51.1044 H       1  ZINC000523863446    0.1500
     61 H61       -11.7178    1.8285   52.3944 H       1  ZINC000523863446    0.1800
@<TRIPOS>BOND
     1     1     2    1
     2     1    32    1
     3     1    33    1
     4     1    34    1
     5     2     3    1
     6     2     4    1
     7     2    27    1
     8     4     5    2
     9     4     6   am
    10     6     7    1
    11     6     8    1
    12     7    35    1
    13     7    36    1
    14     7    37    1
    15     8     9    1
    16     8    38    1
    17     8    39    1
    18     9    10    2
    19     9    11   am
    20    11    12    1
    21    11    40    1
    22    12    13    1
    23    12    14    1
    24    12    21    1
    25    14    15    1
    26    14    41    1
    27    14    42    1
    28    15    20    1
    29    15    16    1
    30    15    43    1
    31    16    17    1
    32    16    44    1
    33    16    45    1
    34    17    18    1
    35    17    46    1
    36    17    47    1
    37    18    19    1
    38    18    48    1
    39    18    49    1
    40    19    20    1
    41    19    50    1
    42    19    51    1
    43    20    52    1
    44    20    53    1
    45    21    26   ar
    46    21    22   ar
    47    22    23   ar
    48    22    54    1
    49    23    24   ar
    50    23    55    1
    51    24    25   ar
    52    24    56    1
    53    25    26   ar
    54    25    57    1
    55    26    58    1
    56    27    31    1
    57    27    28    1
    58    28    29    2
    59    28    59    1
    60    29    30    1
    61    29    60    1
    62    30    31    2
    63    30    61    1
@<TRIPOS>SUBSTRUCTURE
     1 ZINC000523863446        1 TEMP              0 ****  ****    0 ROOT


##########                                Name:    ZINC000654382142
##########                DOCK_Rotatable_Bonds:                  14
##########                         Heavy_Atoms:                  24
##########                    Molecular_Weight:             379.401
##########                DOCK_Rotatable_Bonds:                  14
##########                       Formal_Charge:          0.00999933
##########                     HBond_Acceptors:                  12
##########                        HBond_Donors:                   2
##########                         Heavy_Atoms:                  24
##########                          Grid_Score:          -36.194412
##########                     Grid_vdw_energy:          -34.005238
##########                      Grid_es_energy:           -2.189174
##########           Internal_energy_repulsive:           18.892986

@<TRIPOS>MOLECULE
ZINC000654382142
 48 47 1 0 0
SMALL
USER_CHARGES


@<TRIPOS>ATOM
      1 C1         -3.7936    5.3551   54.4857 C.3     1  ZINC000654382142    0.0300
      2 O2         -3.6372    5.5247   53.0754 O.3     1  ZINC000654382142   -0.3700
      3 C3         -4.5889    4.7999   52.2938 C.3     1  ZINC000654382142    0.0400
      4 C4         -4.4529    3.3037   52.5834 C.3     1  ZINC000654382142    0.1400
      5 N5         -4.8158    2.5398   51.3872 N.am    1  ZINC000654382142   -0.6100
      6 C6         -6.1624    1.9774   51.2579 C.3     1  ZINC000654382142    0.0800
      7 C7         -6.3877    0.9361   52.3561 C.3     1  ZINC000654382142    0.0500
      8 H8         -5.4952    0.8645   52.9776 H       1  ZINC000654382142    0.1400
      9 O9         -6.6562   -0.3345   51.7597 O.3     1  ZINC000654382142   -0.5200
     10 C10        -7.5787    1.3557   53.2201 C.3     1  ZINC000654382142    0.4200
     11 F11        -7.3198    2.6037   53.7968 F       1  ZINC000654382142   -0.1800
     12 F12        -8.7260    1.4389   52.4239 F       1  ZINC000654382142   -0.1700
     13 F13        -7.7793    0.4081   54.2296 F       1  ZINC000654382142   -0.1800
     14 C14        -3.9110    2.3543   50.4058 C.2     1  ZINC000654382142    0.7100
     15 O15        -4.2128    1.7215   49.4123 O.2     1  ZINC000654382142   -0.5600
     16 N16        -2.6717    2.8703   50.5255 N.am    1  ZINC000654382142   -0.7500
     17 C17        -1.6876    2.6671   49.4593 C.3     1  ZINC000654382142    0.1400
     18 C18        -1.2345    1.2057   49.4552 C.3     1  ZINC000654382142   -0.1600
     19 C19        -0.2085    0.9931   48.3404 C.3     1  ZINC000654382142    0.1200
     20 N20        -0.6753   -0.0664   47.4427 N.am    1  ZINC000654382142   -1.0000
     21 C21        -0.7023   -1.4571   47.9025 C.3     1  ZINC000654382142    0.0900
     22 S22        -1.1726    0.3081   45.9082 S.o2    1  ZINC000654382142    2.6100
     23 C23         0.2829    1.0631   45.1323 C.3     1  ZINC000654382142   -0.6800
     24 O24        -1.4571   -0.9514   45.3148 O.2     1  ZINC000654382142   -0.9500
     25 O25        -2.1953    1.2763   46.0976 O.2     1  ZINC000654382142   -0.9500
     26 H26        -3.0341    5.9369   55.0081 H       1  ZINC000654382142    0.0900
     27 H27        -4.7839    5.6982   54.7853 H       1  ZINC000654382142    0.0400
     28 H28        -3.6821    4.3009   54.7395 H       1  ZINC000654382142    0.0400
     29 H29        -5.5958    5.1294   52.5499 H       1  ZINC000654382142    0.0500
     30 H30        -4.4048    4.9833   51.2353 H       1  ZINC000654382142    0.0600
     31 H31        -3.4225    3.0792   52.8591 H       1  ZINC000654382142    0.0900
     32 H32        -5.1163    3.0307   53.4041 H       1  ZINC000654382142    0.1000
     33 H33        -6.8998    2.7740   51.3557 H       1  ZINC000654382142    0.1000
     34 H34        -6.2662    1.5040   50.2815 H       1  ZINC000654382142    0.1000
     35 H35        -7.4408   -0.3460   51.1947 H       1  ZINC000654382142    0.3900
     36 H36        -2.4314    3.3762   51.3174 H       1  ZINC000654382142    0.3900
     37 H37        -2.1387    2.9104   48.4973 H       1  ZINC000654382142    0.0700
     38 H38        -0.8271    3.3139   49.6311 H       1  ZINC000654382142    0.0700
     39 H39        -0.7820    0.9629   50.4166 H       1  ZINC000654382142    0.0700
     40 H40        -2.0952    0.5590   49.2850 H       1  ZINC000654382142    0.0800
     41 H41        -0.0863    1.9185   47.7776 H       1  ZINC000654382142    0.0900
     42 H42         0.7477    0.7043   48.7769 H       1  ZINC000654382142    0.1000
     43 H43        -1.6685   -1.6700   48.3598 H       1  ZINC000654382142    0.0600
     44 H44        -0.5470   -2.1234   47.0540 H       1  ZINC000654382142    0.0700
     45 H45         0.0889   -1.6126   48.6360 H       1  ZINC000654382142    0.0700
     46 H46         1.1056    0.3480   45.1303 H       1  ZINC000654382142    0.1300
     47 H47         0.0433    1.3440   44.1067 H       1  ZINC000654382142    0.1300
     48 H48         0.5745    1.9508   45.6935 H       1  ZINC000654382142    0.1300
@<TRIPOS>BOND
     1     1     2    1
     2     1    26    1
     3     1    27    1
     4     1    28    1
     5     2     3    1
     6     3     4    1
     7     3    29    1
     8     3    30    1
     9     4     5    1
    10     4    31    1
    11     4    32    1
    12     5     6    1
    13     5    14   am
    14     6     7    1
    15     6    33    1
    16     6    34    1
    17     7     8    1
    18     7     9    1
    19     7    10    1
    20     9    35    1
    21    10    11    1
    22    10    12    1
    23    10    13    1
    24    14    15    2
    25    14    16   am
    26    16    17    1
    27    16    36    1
    28    17    18    1
    29    17    37    1
    30    17    38    1
    31    18    19    1
    32    18    39    1
    33    18    40    1
    34    19    20    1
    35    19    41    1
    36    19    42    1
    37    20    21    1
    38    20    22   am
    39    21    43    1
    40    21    44    1
    41    21    45    1
    42    22    23    1
    43    22    24    2
    44    22    25    2
    45    23    46    1
    46    23    47    1
    47    23    48    1
@<TRIPOS>SUBSTRUCTURE
     1 ZINC000654382142        1 TEMP              0 ****  ****    0 ROOT


##########                                Name:    ZINC000826435081
##########                DOCK_Rotatable_Bonds:                   7
##########                         Heavy_Atoms:                  28
##########                    Molecular_Weight:             388.361
##########                DOCK_Rotatable_Bonds:                   7
##########                       Formal_Charge:           0.0099996
##########                     HBond_Acceptors:                  12
##########                        HBond_Donors:                   3
##########                         Heavy_Atoms:                  28
##########                          Grid_Score:          -36.173538
##########                     Grid_vdw_energy:          -33.792061
##########                      Grid_es_energy:           -2.381478
##########           Internal_energy_repulsive:           15.269456

@<TRIPOS>MOLECULE
ZINC000826435081
 45 48 1 0 0
SMALL
USER_CHARGES


@<TRIPOS>ATOM
      1 O1         -3.0798    2.2520   48.4234 O.2     1  ZINC000826435081   -0.5700
      2 C2         -2.5954    2.1918   49.5371 C.2     1  ZINC000826435081    0.7200
      3 N3         -3.2220    2.7767   50.5771 N.am    1  ZINC000826435081   -0.7300
      4 C4         -4.4837    3.4902   50.3649 C.3     1  ZINC000826435081    0.1500
      5 C5         -5.6542    2.5796   50.7408 C.3     1  ZINC000826435081    0.0400
      6 H6         -6.5141    2.8139   50.1132 H       1  ZINC000826435081    0.0800
      7 C7         -6.0199    2.7970   52.2120 C.3     1  ZINC000826435081    0.0300
      8 O8         -7.0387    1.8644   52.5851 O.3     1  ZINC000826435081   -0.3800
      9 C9         -6.6624    0.4975   52.3920 C.3     1  ZINC000826435081    0.0200
     10 C10        -6.2968    0.2801   50.9208 C.3     1  ZINC000826435081    0.0200
     11 O11        -5.2785    1.2128   50.5462 O.3     1  ZINC000826435081   -0.3700
     12 N12        -1.4346    1.5353   49.7324 N.am    1  ZINC000826435081   -0.6400
     13 C13        -0.7831    0.9272   48.6512 C.2     1  ZINC000826435081    0.3300
     14 N14        -1.0846    1.0848   47.3837 N.2     1  ZINC000826435081   -0.2800
     15 N15        -0.2002    0.3088   46.6235 N.pl3   1  ZINC000826435081   -0.3300
     16 C16        -0.1892    0.2021   45.2282 C.ar    1  ZINC000826435081    0.2200
     17 C17        -1.2288   -0.4387   44.5710 C.ar    1  ZINC000826435081   -0.1300
     18 C18        -1.2175   -0.5439   43.1932 C.ar    1  ZINC000826435081   -0.0500
     19 C19        -0.1716   -0.0126   42.4605 C.ar    1  ZINC000826435081   -0.1500
     20 C20         0.8723    0.6293   43.1015 C.ar    1  ZINC000826435081    0.1500
     21 F21         1.8918    1.1474   42.3823 F       1  ZINC000826435081   -0.1100
     22 C22         0.8677    0.7465   44.4909 C.ar    1  ZINC000826435081   -0.0500
     23 C23         1.9844    1.4340   45.1847 C.2     1  ZINC000826435081    0.2100
     24 N24         1.9871    2.6722   45.6376 N.2     1  ZINC000826435081   -0.2800
     25 N25         3.1376    2.8930   46.1745 N.pl3   1  ZINC000826435081   -0.2300
     26 N26         3.8638    1.8347   46.0764 N.2     1  ZINC000826435081   -0.0500
     27 N27         3.1855    0.9151   45.4783 N.2     1  ZINC000826435081   -0.2300
     28 C28         0.6446   -0.3217   47.4797 C.2     1  ZINC000826435081    0.0700
     29 C29         0.3094    0.0483   48.7365 C.2     1  ZINC000826435081   -0.2400
     30 H30        -2.8376    2.7251   51.4663 H       1  ZINC000826435081    0.4000
     31 H31        -4.5045    4.3846   50.9877 H       1  ZINC000826435081    0.0800
     32 H32        -4.5677    3.7758   49.3162 H       1  ZINC000826435081    0.0900
     33 H33        -5.1381    2.6411   52.8333 H       1  ZINC000826435081    0.0700
     34 H34        -6.3886    3.8135   52.3494 H       1  ZINC000826435081    0.1100
     35 H35        -5.8022    0.2643   53.0194 H       1  ZINC000826435081    0.0600
     36 H36        -7.4964   -0.1512   52.6597 H       1  ZINC000826435081    0.1100
     37 H37        -5.9282   -0.7364   50.7834 H       1  ZINC000826435081    0.1100
     38 H38        -7.1786    0.4360   50.2994 H       1  ZINC000826435081    0.0600
     39 H39        -1.0502    1.4838   50.6214 H       1  ZINC000826435081    0.4100
     40 H40        -2.0482   -0.8565   45.1370 H       1  ZINC000826435081    0.1500
     41 H41        -2.0294   -1.0439   42.6859 H       1  ZINC000826435081    0.1500
     42 H42        -0.1699   -0.0997   41.3840 H       1  ZINC000826435081    0.1500
     43 H43         3.4132    3.7261   46.5879 H       1  ZINC000826435081    0.4800
     44 H44         1.4442   -0.9942   47.2058 H       1  ZINC000826435081    0.1800
     45 H45         0.7914   -0.2799   49.6455 H       1  ZINC000826435081    0.1800
@<TRIPOS>BOND
     1     1     2    2
     2     2     3   am
     3     2    12   am
     4     3     4    1
     5     3    30    1
     6     4     5    1
     7     4    31    1
     8     4    32    1
     9     5     6    1
    10     5    11    1
    11     5     7    1
    12     7     8    1
    13     7    33    1
    14     7    34    1
    15     8     9    1
    16     9    10    1
    17     9    35    1
    18     9    36    1
    19    10    11    1
    20    10    37    1
    21    10    38    1
    22    12    13    1
    23    12    39    1
    24    13    29    1
    25    13    14    2
    26    14    15    1
    27    15    16    1
    28    15    28    1
    29    16    22   ar
    30    16    17   ar
    31    17    18   ar
    32    17    40    1
    33    18    19   ar
    34    18    41    1
    35    19    20   ar
    36    19    42    1
    37    20    21    1
    38    20    22   ar
    39    22    23    1
    40    23    27    1
    41    23    24    2
    42    24    25    1
    43    25    26    1
    44    25    43    1
    45    26    27    2
    46    28    29    2
    47    28    44    1
    48    29    45    1
@<TRIPOS>SUBSTRUCTURE
     1 ZINC000826435081        1 TEMP              0 ****  ****    0 ROOT


##########                                Name:    ZINC000484900616
##########                DOCK_Rotatable_Bonds:                  10
##########                         Heavy_Atoms:                  29
##########                    Molecular_Weight:             415.556
##########                DOCK_Rotatable_Bonds:                  10
##########                       Formal_Charge:        -1.49012e-08
##########                     HBond_Acceptors:                   7
##########                        HBond_Donors:                   1
##########                         Heavy_Atoms:                  29
##########                          Grid_Score:          -36.161560
##########                     Grid_vdw_energy:          -35.906532
##########                      Grid_es_energy:           -0.255029
##########           Internal_energy_repulsive:           15.455666

@<TRIPOS>MOLECULE
ZINC000484900616
 58 60 1 0 0
SMALL
USER_CHARGES


@<TRIPOS>ATOM
      1 C1        -10.1620    1.5006   56.9826 C.3     1  ZINC000484900616   -0.1500
      2 C2         -9.9125    0.3709   55.9813 C.3     1  ZINC000484900616    0.0600
      3 O3         -8.9761    0.8213   54.9671 O.3     1  ZINC000484900616   -0.3400
      4 C4         -8.6804   -0.0464   53.9788 C.2     1  ZINC000484900616    0.5500
      5 O5         -9.2065   -1.1418   53.9542 O.2     1  ZINC000484900616   -0.5000
      6 C6         -7.7209    0.3325   52.9299 C.2     1  ZINC000484900616    0.0200
      7 C7         -7.3374   -0.5061   51.9400 C.2     1  ZINC000484900616   -0.2400
      8 S8         -6.2211    0.3054   50.9314 S.3     1  ZINC000484900616    0.2900
      9 C9         -6.3303    1.7158   51.8879 C.2     1  ZINC000484900616    0.0300
     10 C10        -5.5743    2.9926   51.6236 C.3     1  ZINC000484900616    0.1500
     11 H11        -6.0965    3.5948   50.8801 H       1  ZINC000484900616    0.0900
     12 C12        -5.3938    3.7941   52.9368 C.3     1  ZINC000484900616   -0.1200
     13 C13        -4.1399    4.6482   52.6127 C.3     1  ZINC000484900616   -0.1400
     14 C14        -3.2863    3.6980   51.7467 C.3     1  ZINC000484900616    0.0500
     15 N15        -4.1997    2.6923   51.1696 N.3     1  ZINC000484900616   -0.5100
     16 C16        -4.1153    2.6845   49.7030 C.3     1  ZINC000484900616    0.0300
     17 C17        -2.6834    2.4733   49.2834 C.2     1  ZINC000484900616    0.5200
     18 O18        -2.0178    3.4135   48.9039 O.2     1  ZINC000484900616   -0.5100
     19 N19        -2.1425    1.2397   49.3297 N.am    1  ZINC000484900616   -0.7300
     20 C20        -0.7500    1.0348   48.9234 C.3     1  ZINC000484900616    0.1900
     21 H21        -0.1646    1.9196   49.1730 H       1  ZINC000484900616    0.1000
     22 C22        -0.1779   -0.1793   49.6582 C.3     1  ZINC000484900616   -0.1600
     23 C23        -0.6904    0.7960   47.4366 C.ar    1  ZINC000484900616   -0.1000
     24 C24        -1.2980   -0.3193   46.8908 C.ar    1  ZINC000484900616   -0.1100
     25 C25        -1.2433   -0.5382   45.5270 C.ar    1  ZINC000484900616   -0.1100
     26 C26        -0.5816    0.3583   44.7089 C.ar    1  ZINC000484900616   -0.0800
     27 C27        -0.5216    0.1194   43.2222 C.3     1  ZINC000484900616   -0.0900
     28 C28         0.9128    0.3227   42.7305 C.3     1  ZINC000484900616   -0.1500
     29 C29         0.0248    1.4743   45.2546 C.ar    1  ZINC000484900616   -0.1100
     30 C30        -0.0331    1.6953   46.6180 C.ar    1  ZINC000484900616   -0.1000
     31 N31        -7.1510    1.5390   52.8623 N.2     1  ZINC000484900616   -0.4300
     32 H32        -9.2210    1.7813   57.4557 H       1  ZINC000484900616    0.0700
     33 H33       -10.5780    2.3629   56.4613 H       1  ZINC000484900616    0.0700
     34 H34       -10.8649    1.1626   57.7441 H       1  ZINC000484900616    0.0800
     35 H35        -9.4965   -0.4912   56.5026 H       1  ZINC000484900616    0.0700
     36 H36       -10.8535    0.0902   55.5083 H       1  ZINC000484900616    0.0700
     37 H37        -7.6803   -1.5217   51.8085 H       1  ZINC000484900616    0.1900
     38 H38        -6.2591    4.4284   53.1292 H       1  ZINC000484900616    0.0900
     39 H39        -5.2053    3.1276   53.7783 H       1  ZINC000484900616    0.0800
     40 H40        -4.4158    5.5396   52.0492 H       1  ZINC000484900616    0.0700
     41 H41        -3.6100    4.9173   53.5264 H       1  ZINC000484900616    0.0800
     42 H42        -2.8022    4.2589   50.9473 H       1  ZINC000484900616    0.0600
     43 H43        -2.5352    3.2067   52.3653 H       1  ZINC000484900616    0.0900
     44 H44        -4.7325    1.8777   49.3078 H       1  ZINC000484900616    0.1100
     45 H45        -4.4712    3.6383   49.3136 H       1  ZINC000484900616    0.0700
     46 H46        -2.6752    0.4876   49.6320 H       1  ZINC000484900616    0.4000
     47 H47         0.8582   -0.3318   49.3559 H       1  ZINC000484900616    0.0700
     48 H48        -0.2209   -0.0066   50.7336 H       1  ZINC000484900616    0.0700
     49 H49        -0.7633   -1.0642   49.4085 H       1  ZINC000484900616    0.0600
     50 H50        -1.8150   -1.0197   47.5299 H       1  ZINC000484900616    0.1200
     51 H51        -1.7173   -1.4100   45.1006 H       1  ZINC000484900616    0.1200
     52 H52        -0.8391   -0.9005   43.0051 H       1  ZINC000484900616    0.0700
     53 H53        -1.1828    0.8216   42.7145 H       1  ZINC000484900616    0.0700
     54 H54         1.2302    1.3427   42.9476 H       1  ZINC000484900616    0.0600
     55 H55         1.5740   -0.3795   43.2381 H       1  ZINC000484900616    0.0600
     56 H56         0.9561    0.1500   41.6551 H       1  ZINC000484900616    0.0600
     57 H57         0.5415    2.1750   44.6155 H       1  ZINC000484900616    0.1200
     58 H58         0.4406    2.5673   47.0443 H       1  ZINC000484900616    0.1200
@<TRIPOS>BOND
     1     1     2    1
     2     1    32    1
     3     1    33    1
     4     1    34    1
     5     2     3    1
     6     2    35    1
     7     2    36    1
     8     3     4    1
     9     4     5    2
    10     4     6    1
    11     6    31    1
    12     6     7    2
    13     7     8    1
    14     7    37    1
    15     8     9    1
    16     9    10    1
    17     9    31    2
    18    10    11    1
    19    10    15    1
    20    10    12    1
    21    12    13    1
    22    12    38    1
    23    12    39    1
    24    13    14    1
    25    13    40    1
    26    13    41    1
    27    14    15    1
    28    14    42    1
    29    14    43    1
    30    15    16    1
    31    16    17    1
    32    16    44    1
    33    16    45    1
    34    17    18    2
    35    17    19   am
    36    19    20    1
    37    19    46    1
    38    20    21    1
    39    20    22    1
    40    20    23    1
    41    22    47    1
    42    22    48    1
    43    22    49    1
    44    23    30   ar
    45    23    24   ar
    46    24    25   ar
    47    24    50    1
    48    25    26   ar
    49    25    51    1
    50    26    27    1
    51    26    29   ar
    52    27    28    1
    53    27    52    1
    54    27    53    1
    55    28    54    1
    56    28    55    1
    57    28    56    1
    58    29    30   ar
    59    29    57    1
    60    30    58    1
@<TRIPOS>SUBSTRUCTURE
     1 ZINC000484900616        1 TEMP              0 ****  ****    0 ROOT


##########                                Name:    ZINC000124554441
##########                DOCK_Rotatable_Bonds:                   9
##########                         Heavy_Atoms:                  26
##########                    Molecular_Weight:             375.898
##########                DOCK_Rotatable_Bonds:                   9
##########                       Formal_Charge:         -0.00999991
##########                     HBond_Acceptors:                   6
##########                        HBond_Donors:                   1
##########                         Heavy_Atoms:                  26
##########                          Grid_Score:          -36.103905
##########                     Grid_vdw_energy:          -35.580929
##########                      Grid_es_energy:           -0.522976
##########           Internal_energy_repulsive:           12.328620

@<TRIPOS>MOLECULE
ZINC000124554441
 52 53 1 0 0
SMALL
USER_CHARGES


@<TRIPOS>ATOM
      1 C1         -1.5304    0.2463   44.2818 C.3     1  ZINC000124554441   -0.1500
      2 C2         -1.2068    0.9915   45.5783 C.3     1  ZINC000124554441   -0.1300
      3 C3         -0.6768    0.0011   46.6170 C.3     1  ZINC000124554441   -0.1200
      4 C4         -0.2817    0.7569   47.8873 C.3     1  ZINC000124554441   -0.1200
      5 C5         -1.3336    0.5164   48.9719 C.3     1  ZINC000124554441   -0.1300
      6 C6         -2.4742    1.5229   48.8083 C.3     1  ZINC000124554441    0.1200
      7 N7         -3.4050    1.3930   49.9321 N.am    1  ZINC000124554441   -0.7300
      8 C8         -4.3886    2.2990   50.1007 C.2     1  ZINC000124554441    0.5200
      9 O9         -4.5022    3.2225   49.3228 O.2     1  ZINC000124554441   -0.5300
     10 C10        -5.3473    2.1643   51.2556 C.3     1  ZINC000124554441   -0.1200
     11 H11        -4.8276    1.7337   52.1115 H       1  ZINC000124554441    0.1000
     12 C12        -5.8925    3.5443   51.6304 C.3     1  ZINC000124554441   -0.1000
     13 C13        -6.8408    3.4129   52.8243 C.3     1  ZINC000124554441   -0.1400
     14 C14        -8.0208    2.5156   52.4377 C.3     1  ZINC000124554441    0.0900
     15 N15        -7.4983    1.2363   51.9385 N.am    1  ZINC000124554441   -0.6000
     16 C16        -7.9177    0.0699   52.4676 C.2     1  ZINC000124554441    0.5600
     17 O17        -7.4779   -0.9817   52.0459 O.2     1  ZINC000124554441   -0.5200
     18 C18        -8.9133    0.0696   53.5616 C.ar    1  ZINC000124554441   -0.0900
     19 C19        -8.5013    0.2722   54.8802 C.ar    1  ZINC000124554441   -0.0900
     20 C20        -9.4272    0.2721   55.8997 C.ar    1  ZINC000124554441   -0.0600
     21 C21       -10.7793    0.0688   55.6152 C.ar    1  ZINC000124554441    0.0100
     22 C22       -11.7423    0.0685   56.6751 C.1     1  ZINC000124554441    0.2400
     23 N23       -12.5062    0.0685   57.5160 N.1     1  ZINC000124554441   -0.3800
     24 C24       -11.1925   -0.1343   54.2949 C.ar    1  ZINC000124554441    0.0000
     25 Cl25      -12.8729   -0.3867   53.9397 Cl      1  ZINC000124554441   -0.0400
     26 C26       -10.2652   -0.1278   53.2746 C.ar    1  ZINC000124554441   -0.0600
     27 C27        -6.5099    1.2522   50.8515 C.3     1  ZINC000124554441    0.1200
     28 H28        -0.6270   -0.2304   43.9014 H       1  ZINC000124554441    0.0500
     29 H29        -2.2868   -0.5134   44.4785 H       1  ZINC000124554441    0.0500
     30 H30        -1.9080    0.9519   43.5417 H       1  ZINC000124554441    0.0500
     31 H31        -0.4503    1.7512   45.3816 H       1  ZINC000124554441    0.0600
     32 H32        -2.1102    1.4682   45.9586 H       1  ZINC000124554441    0.0600
     33 H33        -1.4526   -0.7270   46.8539 H       1  ZINC000124554441    0.0600
     34 H34         0.1953   -0.5150   46.2152 H       1  ZINC000124554441    0.0600
     35 H35         0.6876    0.4001   48.2358 H       1  ZINC000124554441    0.0700
     36 H36        -0.2199    1.8234   47.6711 H       1  ZINC000124554441    0.0700
     37 H37        -1.7265   -0.4961   48.8788 H       1  ZINC000124554441    0.0700
     38 H38        -0.8777    0.6403   49.9541 H       1  ZINC000124554441    0.0700
     39 H39        -2.0667    2.5337   48.7890 H       1  ZINC000124554441    0.0700
     40 H40        -3.0017    1.3259   47.8751 H       1  ZINC000124554441    0.0700
     41 H41        -3.3135    0.6551   50.5550 H       1  ZINC000124554441    0.4000
     42 H42        -5.0646    4.2022   51.8949 H       1  ZINC000124554441    0.0800
     43 H43        -6.4328    3.9641   50.7819 H       1  ZINC000124554441    0.0800
     44 H44        -6.3075    2.9704   53.6656 H       1  ZINC000124554441    0.0700
     45 H45        -7.2106    4.3990   53.1055 H       1  ZINC000124554441    0.0900
     46 H46        -8.6469    2.3383   53.3123 H       1  ZINC000124554441    0.1000
     47 H47        -8.6079    3.0000   51.6575 H       1  ZINC000124554441    0.0800
     48 H48        -7.4557    0.4288   55.1008 H       1  ZINC000124554441    0.1500
     49 H49        -9.1077    0.4290   56.9193 H       1  ZINC000124554441    0.1500
     50 H50       -10.5834   -0.2845   52.2546 H       1  ZINC000124554441    0.1500
     51 H51        -6.9733    1.6336   49.9417 H       1  ZINC000124554441    0.0800
     52 H52        -6.1396    0.2415   50.6795 H       1  ZINC000124554441    0.1000
@<TRIPOS>BOND
     1     1     2    1
     2     1    28    1
     3     1    29    1
     4     1    30    1
     5     2     3    1
     6     2    31    1
     7     2    32    1
     8     3     4    1
     9     3    33    1
    10     3    34    1
    11     4     5    1
    12     4    35    1
    13     4    36    1
    14     5     6    1
    15     5    37    1
    16     5    38    1
    17     6     7    1
    18     6    39    1
    19     6    40    1
    20     7     8   am
    21     7    41    1
    22     8     9    2
    23     8    10    1
    24    10    11    1
    25    10    27    1
    26    10    12    1
    27    12    13    1
    28    12    42    1
    29    12    43    1
    30    13    14    1
    31    13    44    1
    32    13    45    1
    33    14    15    1
    34    14    46    1
    35    14    47    1
    36    15    16   am
    37    15    27    1
    38    16    17    2
    39    16    18    1
    40    18    26   ar
    41    18    19   ar
    42    19    20   ar
    43    19    48    1
    44    20    21   ar
    45    20    49    1
    46    21    22    1
    47    21    24   ar
    48    22    23    3
    49    24    25    1
    50    24    26   ar
    51    26    50    1
    52    27    51    1
    53    27    52    1
@<TRIPOS>SUBSTRUCTURE
     1 ZINC000124554441        1 TEMP              0 ****  ****    0 ROOT


##########                                Name:    ZINC000466160459
##########                DOCK_Rotatable_Bonds:                   9
##########                         Heavy_Atoms:                  30
##########                    Molecular_Weight:             420.512
##########                DOCK_Rotatable_Bonds:                   9
##########                       Formal_Charge:          -0.0300007
##########                     HBond_Acceptors:                  10
##########                        HBond_Donors:                   2
##########                         Heavy_Atoms:                  30
##########                          Grid_Score:          -36.039036
##########                     Grid_vdw_energy:          -34.214695
##########                      Grid_es_energy:           -1.824340
##########           Internal_energy_repulsive:          103.940865

@<TRIPOS>MOLECULE
ZINC000466160459
 62 64 1 0 0
SMALL
USER_CHARGES


@<TRIPOS>ATOM
      1 C1          1.1534    5.9041   53.6136 C.3     1  ZINC000466160459    0.0300
      2 O2          0.5402    5.6162   52.3553 O.3     1  ZINC000466160459   -0.3900
      3 C3          0.3220    4.2238   52.1201 C.3     1  ZINC000466160459    0.0500
      4 C4         -0.3366    4.0348   50.7520 C.3     1  ZINC000466160459    0.1200
      5 N5         -0.5723    2.6082   50.5165 N.am    1  ZINC000466160459   -0.7300
      6 C6          0.3563    1.8679   49.8793 C.2     1  ZINC000466160459    0.5200
      7 O7          1.3878    2.3824   49.5022 O.2     1  ZINC000466160459   -0.5200
      8 C8          0.1130    0.4008   49.6354 C.3     1  ZINC000466160459   -0.1300
      9 H9          0.5264   -0.1787   50.4609 H       1  ZINC000466160459    0.1100
     10 C10         0.7888   -0.0187   48.3279 C.3     1  ZINC000466160459   -0.1000
     11 C11         0.2330    0.8179   47.1732 C.3     1  ZINC000466160459   -0.1500
     12 C12        -1.2721    0.5643   47.0425 C.3     1  ZINC000466160459    0.1600
     13 H13        -1.4442   -0.4725   46.7537 H       1  ZINC000466160459    0.0700
     14 C14        -1.8589    1.4966   45.9807 C.3     1  ZINC000466160459   -0.1400
     15 N15        -1.9103    0.8269   48.3396 N.am    1  ZINC000466160459   -0.6200
     16 C16        -2.9503    1.6790   48.4332 C.2     1  ZINC000466160459    0.7100
     17 O17        -3.3690    2.2388   47.4384 O.2     1  ZINC000466160459   -0.5500
     18 N18        -3.5262    1.9106   49.6295 N.am    1  ZINC000466160459   -0.7300
     19 C19        -4.6567    2.8368   49.7313 C.3     1  ZINC000466160459    0.1600
     20 H20        -5.0238    3.0711   48.7322 H       1  ZINC000466160459    0.1300
     21 C21        -4.1983    4.1248   50.4198 C.3     1  ZINC000466160459   -0.1400
     22 C22        -3.9507    3.8203   51.9021 C.3     1  ZINC000466160459   -0.1400
     23 C23        -5.2903    3.5014   52.5670 C.3     1  ZINC000466160459    0.1100
     24 N24        -6.0116    2.4915   51.8026 N.am    1  ZINC000466160459   -0.5200
     25 C25        -7.0376    1.7877   52.4479 C.2     1  ZINC000466160459    0.2800
     26 N26        -8.2051    1.4823   51.9326 N.2     1  ZINC000466160459   -0.2600
     27 N27        -8.9380    0.7797   52.8976 N.pl3   1  ZINC000466160459   -0.3800
     28 C28       -10.2948    0.2524   52.7323 C.3     1  ZINC000466160459    0.1000
     29 C29        -8.1756    0.6731   54.0062 C.2     1  ZINC000466160459    0.0700
     30 C30        -6.9935    1.2810   53.7566 C.2     1  ZINC000466160459   -0.2900
     31 C31        -5.7560    2.1963   50.5292 C.2     1  ZINC000466160459    0.4900
     32 O32        -6.4495    1.3649   49.9824 O.2     1  ZINC000466160459   -0.4700
     33 C33        -1.3935    0.1424   49.5334 C.3     1  ZINC000466160459    0.1200
     34 H34         1.2848    6.9813   53.7158 H       1  ZINC000466160459    0.0900
     35 H35         0.5178    5.5375   54.4197 H       1  ZINC000466160459    0.0400
     36 H36         2.1251    5.4129   53.6651 H       1  ZINC000466160459    0.0400
     37 H37         1.2764    3.6979   52.1396 H       1  ZINC000466160459    0.0600
     38 H38        -0.3301    3.8221   52.8958 H       1  ZINC000466160459    0.0700
     39 H39        -1.2867    4.5686   50.7293 H       1  ZINC000466160459    0.0800
     40 H40         0.3196    4.4276   49.9755 H       1  ZINC000466160459    0.0800
     41 H41        -1.3968    2.1964   50.8191 H       1  ZINC000466160459    0.4000
     42 H42         1.8641    0.1412   48.4074 H       1  ZINC000466160459    0.0700
     43 H43         0.5917   -1.0740   48.1396 H       1  ZINC000466160459    0.0700
     44 H44         0.4079    1.8751   47.3728 H       1  ZINC000466160459    0.1000
     45 H45         0.7315    0.5349   46.2461 H       1  ZINC000466160459    0.0700
     46 H46        -1.3087    1.3765   45.0475 H       1  ZINC000466160459    0.0400
     47 H47        -2.9078    1.2480   45.8186 H       1  ZINC000466160459    0.0800
     48 H48        -1.7786    2.5295   46.3196 H       1  ZINC000466160459    0.0600
     49 H49        -3.1922    1.4638   50.4232 H       1  ZINC000466160459    0.3900
     50 H50        -3.2763    4.4791   49.9589 H       1  ZINC000466160459    0.0900
     51 H51        -4.9723    4.8865   50.3259 H       1  ZINC000466160459    0.0900
     52 H52        -3.2840    2.9627   51.9929 H       1  ZINC000466160459    0.0700
     53 H53        -3.5010    4.6886   52.3837 H       1  ZINC000466160459    0.1000
     54 H54        -5.1123    3.1302   53.5763 H       1  ZINC000466160459    0.0900
     55 H55        -5.8909    4.4093   52.6211 H       1  ZINC000466160459    0.0800
     56 H56       -10.2446   -0.7635   52.3402 H       1  ZINC000466160459    0.0700
     57 H57       -10.8018    0.2447   53.6972 H       1  ZINC000466160459    0.0900
     58 H58       -10.8477    0.8834   52.0365 H       1  ZINC000466160459    0.0900
     59 H59        -8.4577    0.1853   54.9275 H       1  ZINC000466160459    0.1800
     60 H60        -6.1655    1.3680   54.4445 H       1  ZINC000466160459    0.1500
     61 H61        -1.5756   -0.9289   49.4478 H       1  ZINC000466160459    0.0900
     62 H62        -1.8924    0.5302   50.4216 H       1  ZINC000466160459    0.0700
@<TRIPOS>BOND
     1     1     2    1
     2     1    34    1
     3     1    35    1
     4     1    36    1
     5     2     3    1
     6     3     4    1
     7     3    37    1
     8     3    38    1
     9     4     5    1
    10     4    39    1
    11     4    40    1
    12     5     6   am
    13     5    41    1
    14     6     7    2
    15     6     8    1
    16     8     9    1
    17     8    33    1
    18     8    10    1
    19    10    11    1
    20    10    42    1
    21    10    43    1
    22    11    12    1
    23    11    44    1
    24    11    45    1
    25    12    13    1
    26    12    14    1
    27    12    15    1
    28    14    46    1
    29    14    47    1
    30    14    48    1
    31    15    16   am
    32    15    33    1
    33    16    17    2
    34    16    18   am
    35    18    19    1
    36    18    49    1
    37    19    20    1
    38    19    31    1
    39    19    21    1
    40    21    22    1
    41    21    50    1
    42    21    51    1
    43    22    23    1
    44    22    52    1
    45    22    53    1
    46    23    24    1
    47    23    54    1
    48    23    55    1
    49    24    25    1
    50    24    31   am
    51    25    30    1
    52    25    26    2
    53    26    27    1
    54    27    28    1
    55    27    29    1
    56    28    56    1
    57    28    57    1
    58    28    58    1
    59    29    30    2
    60    29    59    1
    61    30    60    1
    62    31    32    2
    63    33    61    1
    64    33    62    1
@<TRIPOS>SUBSTRUCTURE
     1 ZINC000466160459        1 TEMP              0 ****  ****    0 ROOT


##########                                Name:    ZINC001060578637
##########                DOCK_Rotatable_Bonds:                  10
##########                         Heavy_Atoms:                  25
##########                    Molecular_Weight:             345.401
##########                DOCK_Rotatable_Bonds:                  10
##########                       Formal_Charge:          -0.0400001
##########                     HBond_Acceptors:                   8
##########                        HBond_Donors:                   3
##########                         Heavy_Atoms:                  25
##########                          Grid_Score:          -35.996628
##########                     Grid_vdw_energy:          -34.099365
##########                      Grid_es_energy:           -1.897264
##########           Internal_energy_repulsive:           18.789034

@<TRIPOS>MOLECULE
ZINC001060578637
 48 49 1 0 0
SMALL
USER_CHARGES


@<TRIPOS>ATOM
      1 C1         -1.1505    0.9141   46.5771 C.3     1  ZINC001060578637   -0.1500
      2 C2         -0.7486    1.6970   47.8286 C.3     1  ZINC001060578637   -0.1300
      3 C3         -1.6091    1.2460   49.0106 C.3     1  ZINC001060578637    0.0700
      4 H4         -1.1156    1.5174   49.9438 H       1  ZINC001060578637    0.0900
      5 O5         -1.7840   -0.1713   48.9590 O.3     1  ZINC001060578637   -0.3600
      6 C6         -0.6008   -0.9143   49.2592 C.3     1  ZINC001060578637    0.0300
      7 C7         -2.9546    1.9210   48.9390 C.2     1  ZINC001060578637    0.5000
      8 O8         -3.4530    2.1671   47.8611 O.2     1  ZINC001060578637   -0.5200
      9 N9         -3.6040    2.2512   50.0729 N.am    1  ZINC001060578637   -0.7300
     10 C10        -4.9127    2.9059   50.0034 C.3     1  ZINC001060578637    0.1600
     11 C11        -5.8355    2.2939   51.0256 C.ar    1  ZINC001060578637   -0.1100
     12 C12        -6.4471    3.0947   51.9719 C.ar    1  ZINC001060578637   -0.0900
     13 C13        -7.2936    2.5333   52.9096 C.ar    1  ZINC001060578637   -0.1100
     14 C14        -7.5288    1.1712   52.9006 C.ar    1  ZINC001060578637   -0.0900
     15 C15        -8.4512    0.5590   53.9231 C.3     1  ZINC001060578637    0.1800
     16 H16        -8.3694   -0.5273   53.8819 H       1  ZINC001060578637    0.1000
     17 C17        -9.8929    0.9736   53.6226 C.3     1  ZINC001060578637   -0.1600
     18 N18        -8.0773    1.0264   55.2602 N.am    1  ZINC001060578637   -0.7000
     19 C19        -8.5895    0.4249   56.3522 C.2     1  ZINC001060578637    0.6100
     20 O20        -9.3633   -0.5048   56.2274 O.2     1  ZINC001060578637   -0.5300
     21 C21        -8.2118    0.8942   57.6979 C.2     1  ZINC001060578637    0.1200
     22 N22        -8.6363    0.4082   58.8447 N.2     1  ZINC001060578637   -0.2400
     23 N23        -8.0977    1.0616   59.8124 N.2     1  ZINC001060578637   -0.2900
     24 C24        -7.3064    1.9925   59.3378 C.2     1  ZINC001060578637    0.1900
     25 N25        -7.3468    1.9164   57.9928 N.pl3   1  ZINC001060578637   -0.5500
     26 C26        -6.9182    0.3706   51.9534 C.ar    1  ZINC001060578637   -0.1100
     27 C27        -6.0748    0.9324   51.0135 C.ar    1  ZINC001060578637   -0.0900
     28 H28        -0.5166    1.2131   45.7424 H       1  ZINC001060578637    0.0600
     29 H29        -1.0288   -0.1532   46.7615 H       1  ZINC001060578637    0.0500
     30 H30        -2.1924    1.1248   46.3358 H       1  ZINC001060578637    0.0600
     31 H31         0.3018    1.5106   48.0521 H       1  ZINC001060578637    0.0800
     32 H32        -0.8996    2.7625   47.6549 H       1  ZINC001060578637    0.0800
     33 H33        -0.8343   -1.9789   49.2747 H       1  ZINC001060578637    0.0900
     34 H34         0.1539   -0.7189   48.4974 H       1  ZINC001060578637    0.0500
     35 H35        -0.2195   -0.6118   50.2345 H       1  ZINC001060578637    0.0400
     36 H36        -3.2047    2.0555   50.9350 H       1  ZINC001060578637    0.4000
     37 H37        -4.7980    3.9702   50.2085 H       1  ZINC001060578637    0.0800
     38 H38        -5.3338    2.7712   49.0071 H       1  ZINC001060578637    0.0800
     39 H39        -6.2635    4.1589   51.9789 H       1  ZINC001060578637    0.1300
     40 H40        -7.7709    3.1589   53.6494 H       1  ZINC001060578637    0.1300
     41 H41        -9.9746    2.0597   53.6638 H       1  ZINC001060578637    0.0600
     42 H42       -10.1712    0.6258   52.6277 H       1  ZINC001060578637    0.0700
     43 H43       -10.5600    0.5308   54.3621 H       1  ZINC001060578637    0.0700
     44 H44        -7.4609    1.7688   55.3597 H       1  ZINC001060578637    0.4100
     45 H45        -6.7242    2.6917   59.9196 H       1  ZINC001060578637    0.2300
     46 H46        -6.8661    2.4747   57.3619 H       1  ZINC001060578637    0.4400
     47 H47        -7.1023   -0.6936   51.9463 H       1  ZINC001060578637    0.1300
     48 H48        -5.5977    0.3069   50.2734 H       1  ZINC001060578637    0.1300
@<TRIPOS>BOND
     1     1     2    1
     2     1    28    1
     3     1    29    1
     4     1    30    1
     5     2     3    1
     6     2    31    1
     7     2    32    1
     8     3     4    1
     9     3     5    1
    10     3     7    1
    11     5     6    1
    12     6    33    1
    13     6    34    1
    14     6    35    1
    15     7     8    2
    16     7     9   am
    17     9    10    1
    18     9    36    1
    19    10    11    1
    20    10    37    1
    21    10    38    1
    22    11    27   ar
    23    11    12   ar
    24    12    13   ar
    25    12    39    1
    26    13    14   ar
    27    13    40    1
    28    14    15    1
    29    14    26   ar
    30    15    16    1
    31    15    17    1
    32    15    18    1
    33    17    41    1
    34    17    42    1
    35    17    43    1
    36    18    19   am
    37    18    44    1
    38    19    20    2
    39    19    21    1
    40    21    25    1
    41    21    22    2
    42    22    23    1
    43    23    24    2
    44    24    25    1
    45    24    45    1
    46    25    46    1
    47    26    27   ar
    48    26    47    1
    49    27    48    1
@<TRIPOS>SUBSTRUCTURE
     1 ZINC001060578637        1 TEMP              0 ****  ****    0 ROOT


##########                                Name:    ZINC000534799364
##########                DOCK_Rotatable_Bonds:                   4
##########                         Heavy_Atoms:                  29
##########                    Molecular_Weight:             391.491
##########                DOCK_Rotatable_Bonds:                   4
##########                       Formal_Charge:           0.0199998
##########                     HBond_Acceptors:                   6
##########                        HBond_Donors:                   0
##########                         Heavy_Atoms:                  29
##########                          Grid_Score:          -35.993729
##########                     Grid_vdw_energy:          -35.362877
##########                      Grid_es_energy:           -0.630850
##########           Internal_energy_repulsive:            7.363986

@<TRIPOS>MOLECULE
ZINC000534799364
 55 59 1 0 0
SMALL
USER_CHARGES


@<TRIPOS>ATOM
      1 C1        -10.4986   -0.2325   52.7688 C.3     1  ZINC000534799364   -0.1100
      2 C2         -9.8267    0.1167   54.0717 C.ar    1  ZINC000534799364   -0.0200
      3 C3        -10.3233   -0.3559   55.2752 C.ar    1  ZINC000534799364   -0.1700
      4 C4         -9.6810   -0.0151   56.4513 C.ar    1  ZINC000534799364    0.1000
      5 N5         -8.6074    0.7501   56.4401 N.ar    1  ZINC000534799364   -0.4800
      6 C6         -8.1018    1.2211   55.3175 C.ar    1  ZINC000534799364    0.0800
      7 C7         -8.6874    0.9180   54.0951 C.ar    1  ZINC000534799364    0.0300
      8 N8         -8.1484    1.4187   52.9073 N.3     1  ZINC000534799364   -0.5000
      9 C9         -6.9602    0.6535   52.5045 C.3     1  ZINC000534799364    0.0600
     10 C10        -6.4481    1.1807   51.1621 C.3     1  ZINC000534799364    0.0600
     11 N11        -6.1323    2.6104   51.2884 N.3     1  ZINC000534799364   -0.5300
     12 C12        -5.5656    3.1367   50.0395 C.3     1  ZINC000534799364    0.1400
     13 C13        -4.0762    2.9075   50.0280 C.2     1  ZINC000534799364    0.1100
     14 N14        -3.4328    2.0908   49.2345 N.2     1  ZINC000534799364   -0.2800
     15 N15        -2.0686    2.1684   49.5390 N.pl3   1  ZINC000534799364   -0.3100
     16 C16        -1.0409    1.4481   48.9130 C.ar    1  ZINC000534799364    0.1500
     17 C17        -1.0775    0.0604   48.8926 C.ar    1  ZINC000534799364   -0.1000
     18 C18        -0.0646   -0.6472   48.2757 C.ar    1  ZINC000534799364   -0.1300
     19 C19         0.9871    0.0266   47.6776 C.ar    1  ZINC000534799364    0.1000
     20 F20         1.9769   -0.6673   47.0743 F       1  ZINC000534799364   -0.1300
     21 C21         1.0253    1.4108   47.6970 C.ar    1  ZINC000534799364   -0.1300
     22 C22         0.0113    2.1220   48.3079 C.ar    1  ZINC000534799364   -0.0800
     23 C23        -1.9167    3.0626   50.5455 C.2     1  ZINC000534799364    0.0500
     24 C24        -3.1418    3.5378   50.8619 C.2     1  ZINC000534799364   -0.2200
     25 C25        -3.0378    4.5467   51.9855 C.3     1  ZINC000534799364   -0.0400
     26 C26        -1.6443    4.3102   52.6078 C.3     1  ZINC000534799364   -0.1200
     27 C27        -0.8623    3.7045   51.4206 C.3     1  ZINC000534799364   -0.0500
     28 C28        -7.3206    3.3755   51.6912 C.3     1  ZINC000534799364    0.0600
     29 C29        -7.8327    2.8483   53.0337 C.3     1  ZINC000534799364    0.0600
     30 H30       -10.0087   -1.1011   52.3287 H       1  ZINC000534799364    0.0800
     31 H31       -11.5486   -0.4612   52.9513 H       1  ZINC000534799364    0.0600
     32 H32       -10.4244    0.6122   52.0840 H       1  ZINC000534799364    0.0800
     33 H33       -11.2024   -0.9829   55.2947 H       1  ZINC000534799364    0.1400
     34 H34       -10.0645   -0.3807   57.3925 H       1  ZINC000534799364    0.1600
     35 H35        -7.2210    1.8453   55.3483 H       1  ZINC000534799364    0.1500
     36 H36        -6.1823    0.7654   53.2598 H       1  ZINC000534799364    0.0500
     37 H37        -7.2224   -0.3999   52.4055 H       1  ZINC000534799364    0.0800
     38 H38        -5.5498    0.6338   50.8754 H       1  ZINC000534799364    0.0900
     39 H39        -7.2161    1.0437   50.4008 H       1  ZINC000534799364    0.0500
     40 H40        -6.0187    2.6245   49.1907 H       1  ZINC000534799364    0.1000
     41 H41        -5.7694    4.2052   49.9701 H       1  ZINC000534799364    0.0500
     42 H42        -1.8974   -0.4653   49.3592 H       1  ZINC000534799364    0.1400
     43 H43        -0.0926   -1.7267   48.2600 H       1  ZINC000534799364    0.1500
     44 H44         1.8466    1.9346   47.2305 H       1  ZINC000534799364    0.1500
     45 H45         0.0412    3.2015   48.3226 H       1  ZINC000534799364    0.1400
     46 H46        -3.1098    5.5606   51.5919 H       1  ZINC000534799364    0.0800
     47 H47        -3.8182    4.3707   52.7259 H       1  ZINC000534799364    0.0700
     48 H48        -1.1963    5.2508   52.9280 H       1  ZINC000534799364    0.0800
     49 H49        -1.7031    3.6061   53.4378 H       1  ZINC000534799364    0.0800
     50 H50        -0.1582    2.9518   51.7752 H       1  ZINC000534799364    0.0800
     51 H51        -0.3371    4.4877   50.8737 H       1  ZINC000534799364    0.0900
     52 H52        -7.0584    4.4289   51.7903 H       1  ZINC000534799364    0.0900
     53 H53        -8.0984    3.2636   50.9359 H       1  ZINC000534799364    0.0500
     54 H54        -8.7309    3.3952   53.3204 H       1  ZINC000534799364    0.0800
     55 H55        -7.0647    2.9852   53.7949 H       1  ZINC000534799364    0.0500
@<TRIPOS>BOND
     1     1     2    1
     2     1    30    1
     3     1    31    1
     4     1    32    1
     5     2     7   ar
     6     2     3   ar
     7     3     4   ar
     8     3    33    1
     9     4     5   ar
    10     4    34    1
    11     5     6   ar
    12     6     7   ar
    13     6    35    1
    14     7     8    1
    15     8    29    1
    16     8     9    1
    17     9    10    1
    18     9    36    1
    19     9    37    1
    20    10    11    1
    21    10    38    1
    22    10    39    1
    23    11    12    1
    24    11    28    1
    25    12    13    1
    26    12    40    1
    27    12    41    1
    28    13    24    1
    29    13    14    2
    30    14    15    1
    31    15    16    1
    32    15    23    1
    33    16    22   ar
    34    16    17   ar
    35    17    18   ar
    36    17    42    1
    37    18    19   ar
    38    18    43    1
    39    19    20    1
    40    19    21   ar
    41    21    22   ar
    42    21    44    1
    43    22    45    1
    44    23    27    1
    45    23    24    2
    46    24    25    1
    47    25    26    1
    48    25    46    1
    49    25    47    1
    50    26    27    1
    51    26    48    1
    52    26    49    1
    53    27    50    1
    54    27    51    1
    55    28    29    1
    56    28    52    1
    57    28    53    1
    58    29    54    1
    59    29    55    1
@<TRIPOS>SUBSTRUCTURE
     1 ZINC000534799364        1 TEMP              0 ****  ****    0 ROOT


##########                                Name:     oleObject15.pdb
##########                DOCK_Rotatable_Bonds:                   9
##########                         Heavy_Atoms:                  29
##########                    Molecular_Weight:             395.545
##########                DOCK_Rotatable_Bonds:                   9
##########                       Formal_Charge:         0.000700183
##########                     HBond_Acceptors:                   5
##########                        HBond_Donors:                   1
##########                         Heavy_Atoms:                  29
##########                          Grid_Score:          -35.983322
##########                     Grid_vdw_energy:          -34.789639
##########                      Grid_es_energy:           -1.193684
##########           Internal_energy_repulsive:           10.076943

@<TRIPOS>MOLECULE
oleObject15.pdb
 62 64 1 0 0
SMALL
NO_CHARGES


@<TRIPOS>ATOM
      1 O          -8.1534    0.2463   54.4924 O.3     1  UNL        -0.3745
      2 C          -7.5535    0.8307   53.3142 C.3     1  UNL         0.0600
      3 C          -7.1251    2.2790   53.6460 C.3     1  UNL         0.0217
      4 N          -6.3670    2.9592   52.5700 N.4     1  UNL        -0.3010
      5 C          -4.9202    3.1221   52.8406 C.3     1  UNL        -0.0010
      6 C          -4.2204    3.9523   51.7426 C.3     1  UNL        -0.0289
      7 C          -4.4612    3.3922   50.3201 C.3     1  UNL         0.0382
      8 C          -5.9748    3.1483   50.0945 C.3     1  UNL        -0.0289
      9 C          -6.6491    2.3660   51.2457 C.3     1  UNL        -0.0010
     10 C          -3.6134    2.1237   50.0529 C.2     1  UNL         0.2156
     11 O          -4.0356    1.0057   50.2866 O.2     1  UNL        -0.2774
     12 N          -2.3501    2.2437   49.4881 N.am    1  UNL        -0.3025
     13 C          -1.4029    1.1612   49.1618 C.3     1  UNL         0.0900
     14 C          -1.4725    0.7307   47.6977 C.ar    1  UNL        -0.0217
     15 C          -1.3582   -0.6253   47.3303 C.ar    1  UNL        -0.0568
     16 C          -1.4119   -1.0025   45.9785 C.ar    1  UNL        -0.0619
     17 C          -1.5835   -0.0279   44.9832 C.ar    1  UNL        -0.0622
     18 C          -1.7041    1.3239   45.3412 C.ar    1  UNL        -0.0619
     19 C          -1.6507    1.7008   46.6931 C.ar    1  UNL        -0.0568
     20 C           0.0268    1.5268   49.5496 C.ar    1  UNL         0.0652
     21 C           0.8090    0.6898   50.3721 C.ar    1  UNL        -0.0383
     22 C           2.1153    1.0854   50.7013 C.ar    1  UNL        -0.0588
     23 C           2.5941    2.3049   50.1979 C.ar    1  UNL        -0.0438
     24 C           1.7472    3.0790   49.3864 C.ar    1  UNL         0.0272
     25 N           0.4923    2.7007   49.0693 N.ar    1  UNL        -0.2590
     26 C          -9.5915    0.0994   54.5646 C.3     1  UNL         0.0599
     27 C         -10.0880   -0.7501   53.3677 C.3     1  UNL        -0.0364
     28 C          -9.8510   -0.6526   55.8896 C.3     1  UNL        -0.0364
     29 C         -10.2669    1.4931   54.6010 C.3     1  UNL        -0.0364
     30 H          -8.2770    0.8572   52.4905 H       1  UNL         0.0581
     31 H          -6.6813    0.2569   52.9826 H       1  UNL         0.0581
     32 H          -6.5082    2.2431   54.5530 H       1  UNL         0.0455
     33 H          -8.0231    2.8626   53.8855 H       1  UNL         0.0455
     34 H          -4.4426    2.1364   52.9125 H       1  UNL         0.0431
     35 H          -4.7646    3.6387   53.7949 H       1  UNL         0.0431
     36 H          -3.1462    4.0098   51.9532 H       1  UNL         0.0288
     37 H          -4.6033    4.9802   51.7881 H       1  UNL         0.0288
     38 H          -4.1728    4.1711   49.6095 H       1  UNL         0.0402
     39 H          -6.1340    2.6242   49.1436 H       1  UNL         0.0288
     40 H          -6.4757    4.1208   50.0031 H       1  UNL         0.0288
     41 H          -6.3056    1.3241   51.2286 H       1  UNL         0.0431
     42 H          -7.7322    2.3548   51.0683 H       1  UNL         0.0431
     43 H          -2.0947    3.1750   49.1857 H       1  UNL         0.1504
     44 H          -1.6817    0.3004   49.7830 H       1  UNL         0.0624
     45 H          -1.2174   -1.3886   48.0901 H       1  UNL         0.0626
     46 H          -1.3182   -2.0490   45.7033 H       1  UNL         0.0623
     47 H          -1.6244   -0.3195   43.9376 H       1  UNL         0.0623
     48 H          -1.8396    2.0792   44.5723 H       1  UNL         0.0623
     49 H          -1.7463    2.7497   46.9598 H       1  UNL         0.0626
     50 H           0.4130   -0.2483   50.7491 H       1  UNL         0.0643
     51 H           2.7415    0.4614   51.3325 H       1  UNL         0.0624
     52 H           3.5989    2.6445   50.4309 H       1  UNL         0.0639
     53 H           2.0831    4.0314   48.9780 H       1  UNL         0.0840
     54 H          -9.5064   -1.6767   53.2794 H       1  UNL         0.0260
     55 H         -10.0058   -0.2019   52.4215 H       1  UNL         0.0260
     56 H         -11.1426   -1.0238   53.4979 H       1  UNL         0.0260
     57 H          -9.3493   -1.6289   55.8893 H       1  UNL         0.0260
     58 H         -10.9242   -0.8227   56.0429 H       1  UNL         0.0260
     59 H          -9.4730   -0.0785   56.7452 H       1  UNL         0.0260
     60 H         -10.1639    2.0154   53.6418 H       1  UNL         0.0260
     61 H          -9.8234    2.1217   55.3840 H       1  UNL         0.0260
     62 H         -11.3398    1.3985   54.8110 H       1  UNL         0.0260
@<TRIPOS>BOND
     1     1     2    1
     2     1    26    1
     3     2     3    1
     4     2    30    1
     5     2    31    1
     6     3     4    1
     7     3    32    1
     8     3    33    1
     9     4     5    1
    10     4     9    1
    11     5     6    1
    12     5    34    1
    13     5    35    1
    14     6     7    1
    15     6    36    1
    16     6    37    1
    17     7     8    1
    18     7    10    1
    19     7    38    1
    20     8     9    1
    21     8    39    1
    22     8    40    1
    23     9    41    1
    24     9    42    1
    25    10    11    2
    26    10    12   am
    27    12    13    1
    28    12    43    1
    29    13    14    1
    30    13    20    1
    31    13    44    1
    32    14    15   ar
    33    14    19   ar
    34    15    16   ar
    35    15    45    1
    36    16    17   ar
    37    16    46    1
    38    17    18   ar
    39    17    47    1
    40    18    19   ar
    41    18    48    1
    42    19    49    1
    43    20    21   ar
    44    20    25   ar
    45    21    22   ar
    46    21    50    1
    47    22    23   ar
    48    22    51    1
    49    23    24   ar
    50    23    52    1
    51    24    25   ar
    52    24    53    1
    53    26    27    1
    54    26    28    1
    55    26    29    1
    56    27    54    1
    57    27    55    1
    58    27    56    1
    59    28    57    1
    60    28    58    1
    61    28    59    1
    62    29    60    1
    63    29    61    1
    64    29    62    1
@<TRIPOS>SUBSTRUCTURE
     1 UNL         1 TEMP              0 ****  ****    0 ROOT


##########                                Name:    ZINC000981700465
##########                DOCK_Rotatable_Bonds:                   9
##########                         Heavy_Atoms:                  26
##########                    Molecular_Weight:             356.428
##########                DOCK_Rotatable_Bonds:                   9
##########                       Formal_Charge:               -0.01
##########                     HBond_Acceptors:                   8
##########                        HBond_Donors:                   3
##########                         Heavy_Atoms:                  26
##########                          Grid_Score:          -35.982937
##########                     Grid_vdw_energy:          -34.945133
##########                      Grid_es_energy:           -1.037805
##########           Internal_energy_repulsive:           10.755693

@<TRIPOS>MOLECULE
ZINC000981700465
 50 52 1 0 0
SMALL
USER_CHARGES


@<TRIPOS>ATOM
      1 C1         -2.0041    0.2189   44.2611 C.3     1  ZINC000981700465   -0.1500
      2 C2         -1.0931    1.2568   44.9198 C.3     1  ZINC000981700465   -0.1100
      3 C3         -1.5772    1.5288   46.3455 C.3     1  ZINC000981700465   -0.0500
      4 C4         -1.0088    0.4887   47.2761 C.2     1  ZINC000981700465    0.1400
      5 N5         -0.4293   -0.6243   46.9196 N.2     1  ZINC000981700465   -0.2900
      6 N6         -0.0378   -1.3199   48.0689 N.pl3   1  ZINC000981700465   -0.4600
      7 C7         -0.3946   -0.6000   49.1445 C.2     1  ZINC000981700465    0.1000
      8 C8         -1.0044    0.5510   48.6876 C.2     1  ZINC000981700465   -0.2900
      9 C9         -1.5571    1.6373   49.5173 C.2     1  ZINC000981700465    0.5900
     10 O10        -0.8955    2.1078   50.4225 O.2     1  ZINC000981700465   -0.5300
     11 N11        -2.7958    2.1087   49.2722 N.am    1  ZINC000981700465   -0.7300
     12 C12        -3.3457    3.1869   50.0977 C.3     1  ZINC000981700465    0.1300
     13 C13        -4.8693    3.0592   50.1546 C.3     1  ZINC000981700465   -0.1100
     14 H14        -5.3076    3.2979   49.1856 H       1  ZINC000981700465    0.0900
     15 C15        -5.2776    1.6322   50.5975 C.3     1  ZINC000981700465   -0.1200
     16 C16        -6.6985    1.8471   51.1752 C.3     1  ZINC000981700465   -0.1300
     17 C17        -6.6104    3.2053   51.9013 C.3     1  ZINC000981700465    0.1400
     18 H18        -7.5414    3.7578   51.7742 H       1  ZINC000981700465    0.1000
     19 N19        -6.3419    2.9961   53.3262 N.am    1  ZINC000981700465   -0.7100
     20 C20        -7.3615    2.9702   54.2073 C.2     1  ZINC000981700465    0.5600
     21 O21        -8.5033    3.1218   53.8200 O.2     1  ZINC000981700465   -0.5200
     22 C22        -7.0902    2.7568   55.6479 C.ar    1  ZINC000981700465   -0.1400
     23 C23        -8.0765    2.2494   56.5034 C.ar    1  ZINC000981700465   -0.0600
     24 C24        -7.7480    2.0768   57.8383 C.ar    1  ZINC000981700465    0.0400
     25 N25        -6.5393    2.3876   58.2648 N.ar    1  ZINC000981700465   -0.2200
     26 N26        -5.6317    2.8526   57.4867 N.ar    1  ZINC000981700465   -0.2400
     27 C27        -5.8396    3.0494   56.1992 C.ar    1  ZINC000981700465    0.0700
     28 C28        -5.4477    3.9787   51.2501 C.3     1  ZINC000981700465   -0.1200
     29 H29        -3.0255    0.5984   44.2318 H       1  ZINC000981700465    0.0600
     30 H30        -1.6591    0.0251   43.2455 H       1  ZINC000981700465    0.0600
     31 H31        -1.9766   -0.7062   44.8369 H       1  ZINC000981700465    0.0500
     32 H32        -0.0717    0.8773   44.9492 H       1  ZINC000981700465    0.0600
     33 H33        -1.1205    2.1819   44.3441 H       1  ZINC000981700465    0.0600
     34 H34        -1.2446    2.5182   46.6596 H       1  ZINC000981700465    0.1000
     35 H35        -2.6660    1.4856   46.3739 H       1  ZINC000981700465    0.0800
     36 H36         0.4149   -2.1775   48.0857 H       1  ZINC000981700465    0.4500
     37 H37        -0.2306   -0.8697   50.1773 H       1  ZINC000981700465    0.1800
     38 H38        -3.3230    1.7342   48.5494 H       1  ZINC000981700465    0.4000
     39 H39        -2.9373    3.1170   51.1059 H       1  ZINC000981700465    0.0700
     40 H40        -3.0778    4.1499   49.6632 H       1  ZINC000981700465    0.0700
     41 H41        -5.3060    0.9560   49.7432 H       1  ZINC000981700465    0.0700
     42 H42        -4.6009    1.2578   51.3656 H       1  ZINC000981700465    0.0700
     43 H43        -7.4341    1.8909   50.3721 H       1  ZINC000981700465    0.0800
     44 H44        -6.9480    1.0535   51.8795 H       1  ZINC000981700465    0.0700
     45 H45        -5.4305    2.8762   53.6356 H       1  ZINC000981700465    0.4000
     46 H46        -9.0608    2.0012   56.1347 H       1  ZINC000981700465    0.1700
     47 H47        -8.4814    1.6882   58.5293 H       1  ZINC000981700465    0.1800
     48 H48        -5.0502    3.4424   55.5757 H       1  ZINC000981700465    0.1700
     49 H49        -4.6818    4.1976   51.9940 H       1  ZINC000981700465    0.0800
     50 H50        -5.8159    4.9049   50.8089 H       1  ZINC000981700465    0.0800
@<TRIPOS>BOND
     1     1     2    1
     2     1    29    1
     3     1    30    1
     4     1    31    1
     5     2     3    1
     6     2    32    1
     7     2    33    1
     8     3     4    1
     9     3    34    1
    10     3    35    1
    11     4     8    1
    12     4     5    2
    13     5     6    1
    14     6     7    1
    15     6    36    1
    16     7     8    2
    17     7    37    1
    18     8     9    1
    19     9    10    2
    20     9    11   am
    21    11    12    1
    22    11    38    1
    23    12    13    1
    24    12    39    1
    25    12    40    1
    26    13    14    1
    27    13    28    1
    28    13    15    1
    29    15    16    1
    30    15    41    1
    31    15    42    1
    32    16    17    1
    33    16    43    1
    34    16    44    1
    35    17    18    1
    36    17    19    1
    37    17    28    1
    38    19    20   am
    39    19    45    1
    40    20    21    2
    41    20    22    1
    42    22    27   ar
    43    22    23   ar
    44    23    24   ar
    45    23    46    1
    46    24    25   ar
    47    24    47    1
    48    25    26   ar
    49    26    27   ar
    50    27    48    1
    51    28    49    1
    52    28    50    1
@<TRIPOS>SUBSTRUCTURE
     1 ZINC000981700465        1 TEMP              0 ****  ****    0 ROOT


##########                                Name:    ZINC000355549087
##########                DOCK_Rotatable_Bonds:                   9
##########                         Heavy_Atoms:                  23
##########                    Molecular_Weight:             336.415
##########                DOCK_Rotatable_Bonds:                   9
##########                       Formal_Charge:        -9.53674e-07
##########                     HBond_Acceptors:                   8
##########                        HBond_Donors:                   4
##########                         Heavy_Atoms:                  23
##########                          Grid_Score:          -35.963245
##########                     Grid_vdw_energy:          -35.512653
##########                      Grid_es_energy:           -0.450592
##########           Internal_energy_repulsive:           16.203495

@<TRIPOS>MOLECULE
ZINC000355549087
 43 44 1 0 0
SMALL
USER_CHARGES


@<TRIPOS>ATOM
      1 C1         -1.6638   -0.4664   44.2305 C.3     1  <0>        -0.1500
      2 C2         -0.8288    0.7386   44.6681 C.3     1  <0>        -0.1200
      3 C3         -1.4425    1.3539   45.9274 C.3     1  <0>        -0.1000
      4 H4         -2.4634    1.6720   45.7159 H       1  <0>         0.0800
      5 C5         -0.6112    2.5627   46.3617 C.3     1  <0>        -0.1500
      6 C6         -1.4545    0.3136   47.0494 C.3     1  <0>         0.0900
      7 H7         -2.0399   -0.5511   46.7368 H       1  <0>         0.1000
      8 O8         -0.1153   -0.0954   47.3341 O.3     1  <0>        -0.3500
      9 C9         -0.0131   -1.4131   47.8774 C.3     1  <0>         0.0200
     10 C10        -2.0697    0.9159   48.2862 C.2     1  <0>         0.5100
     11 O11        -1.6201    0.6463   49.3799 O.2     1  <0>        -0.4800
     12 N12        -3.1193    1.7542   48.1771 N.am    1  <0>        -0.6200
     13 C13        -3.6855    2.3109   49.3175 C.2     1  <0>         0.2400
     14 N14        -4.8070    1.9356   49.8444 N.2     1  <0>        -0.5000
     15 C15        -5.2015    2.5768   50.9366 C.2     1  <0>         0.1700
     16 C16        -6.4647    2.2556   51.6489 C.2     1  <0>        -0.1100
     17 C17        -7.2954    3.1489   52.2625 C.2     1  <0>         0.0600
     18 N18        -8.3397    2.4690   52.7960 N.pl3   1  <0>        -0.5400
     19 C19        -8.1821    1.1287   52.5253 C.2     1  <0>        -0.0600
     20 C20        -9.0959    0.0541   52.9284 C.2     1  <0>         0.5900
     21 N21        -8.8523   -1.2158   52.5480 N.am    1  <0>        -0.8600
     22 O22       -10.0740    0.3094   53.6061 O.2     1  <0>        -0.5300
     23 C23        -7.0273    0.9754   51.8098 C.2     1  <0>        -0.0600
     24 C24        -4.3585    3.5430   51.3433 C.2     1  <0>        -0.3200
     25 S25        -2.9961    3.5830   50.2274 S.3     1  <0>         0.2500
     26 H26        -1.2267   -0.9047   43.3333 H       1  <0>         0.0600
     27 H27        -1.6765   -1.2087   45.0284 H       1  <0>         0.0600
     28 H28        -2.6832   -0.1441   44.0177 H       1  <0>         0.0600
     29 H29         0.1904    0.4164   44.8808 H       1  <0>         0.0600
     30 H30        -0.8161    1.4810   43.8701 H       1  <0>         0.0700
     31 H31         0.4097    2.2445   46.5731 H       1  <0>         0.0700
     32 H32        -0.6026    3.3038   45.5624 H       1  <0>         0.0600
     33 H33        -1.0484    3.0010   47.2588 H       1  <0>         0.0500
     34 H34         1.0215   -1.6110   48.1582 H       1  <0>         0.0900
     35 H35        -0.6503   -1.4935   48.7580 H       1  <0>         0.0500
     36 H36        -0.3322   -2.1399   47.1304 H       1  <0>         0.0500
     37 H37        -3.4796    1.9690   47.3024 H       1  <0>         0.4200
     38 H38        -7.1456    4.2173   52.3139 H       1  <0>         0.1800
     39 H39        -9.0771    2.8626   53.2882 H       1  <0>         0.4200
     40 H40        -9.4560   -1.9264   52.8156 H       1  <0>         0.4000
     41 H41        -8.0734   -1.4190   52.0069 H       1  <0>         0.4100
     42 H42        -6.6197    0.0453   51.4422 H       1  <0>         0.1500
     43 H43        -4.4918    4.1801   52.2051 H       1  <0>         0.1800
@<TRIPOS>BOND
     1     1     2    1
     2     1    26    1
     3     1    27    1
     4     1    28    1
     5     2     3    1
     6     2    29    1
     7     2    30    1
     8     3     4    1
     9     3     5    1
    10     3     6    1
    11     5    31    1
    12     5    32    1
    13     5    33    1
    14     6     7    1
    15     6     8    1
    16     6    10    1
    17     8     9    1
    18     9    34    1
    19     9    35    1
    20     9    36    1
    21    10    11    2
    22    10    12   am
    23    12    13    1
    24    12    37    1
    25    13    25    1
    26    13    14    2
    27    14    15    1
    28    15    16    1
    29    15    24    2
    30    16    23    1
    31    16    17    2
    32    17    18    1
    33    17    38    1
    34    18    19    1
    35    18    39    1
    36    19    20    1
    37    19    23    2
    38    20    21   am
    39    20    22    2
    40    21    40    1
    41    21    41    1
    42    23    42    1
    43    24    25    1
    44    24    43    1
@<TRIPOS>SUBSTRUCTURE
     1 <0>         1 TEMP              0 ****  ****    0 ROOT


##########                                Name:    ZINC000509132103
##########                DOCK_Rotatable_Bonds:                   7
##########                         Heavy_Atoms:                  29
##########                    Molecular_Weight:              405.52
##########                DOCK_Rotatable_Bonds:                   7
##########                       Formal_Charge:          -0.0499998
##########                     HBond_Acceptors:                   6
##########                        HBond_Donors:                   0
##########                         Heavy_Atoms:                  29
##########                          Grid_Score:          -35.963226
##########                     Grid_vdw_energy:          -34.862514
##########                      Grid_es_energy:           -1.100710
##########           Internal_energy_repulsive:           11.113159

@<TRIPOS>MOLECULE
ZINC000509132103
 52 55 1 0 0
SMALL
USER_CHARGES


@<TRIPOS>ATOM
      1 C1         -1.3796    0.4395   44.2405 C.3     1  ZINC000509132103    0.0300
      2 O2         -0.9565   -0.0496   45.5148 O.3     1  ZINC000509132103   -0.3000
      3 C3         -1.5236    0.5151   46.6106 C.ar    1  ZINC000509132103    0.2700
      4 C4         -1.1170    0.1298   47.8852 C.ar    1  ZINC000509132103   -0.1300
      5 C5         -1.7273    0.7365   48.9727 C.ar    1  ZINC000509132103   -0.0700
      6 C6         -2.7044    1.6892   48.7240 C.ar    1  ZINC000509132103    0.0500
      7 C7         -3.3963    2.3770   49.8725 C.3     1  ZINC000509132103   -0.0500
      8 S8         -4.9742    1.5488   50.2114 S.3     1  ZINC000509132103   -0.1500
      9 C9         -5.5063    2.3069   51.7711 C.3     1  ZINC000509132103   -0.1300
     10 C10        -6.8099    1.6912   52.2098 C.2     1  ZINC000509132103    0.5400
     11 O11        -7.3204    0.8142   51.5456 O.2     1  ZINC000509132103   -0.5100
     12 N12        -7.4087    2.1152   53.3405 N.am    1  ZINC000509132103   -0.6100
     13 C13        -6.8172    3.1738   54.1659 C.3     1  ZINC000509132103    0.1500
     14 C14        -6.8911    2.7840   55.6209 C.ar    1  ZINC000509132103   -0.1000
     15 C15        -6.1684    3.5418   56.5317 C.ar    1  ZINC000509132103   -0.1100
     16 C16        -6.2042    3.2407   57.8781 C.ar    1  ZINC000509132103   -0.1200
     17 C17        -6.9669    2.1770   58.3223 C.ar    1  ZINC000509132103   -0.1200
     18 C18        -7.6825    1.4206   57.4174 C.ar    1  ZINC000509132103   -0.1100
     19 C19        -7.6435    1.7177   56.0608 C.ar    1  ZINC000509132103   -0.0600
     20 C20        -8.4284    0.8321   55.1292 C.3     1  ZINC000509132103   -0.0200
     21 H21        -7.8681   -0.0854   54.9499 H       1  ZINC000509132103    0.1000
     22 C22        -9.7499    0.4891   55.7673 C.ar    1  ZINC000509132103   -0.0800
     23 C23       -10.0956   -0.8334   55.9726 C.ar    1  ZINC000509132103   -0.1100
     24 C24       -11.3078   -1.1480   56.5580 C.ar    1  ZINC000509132103   -0.1200
     25 C25       -12.1739   -0.1401   56.9384 C.ar    1  ZINC000509132103   -0.1200
     26 C26       -11.8277    1.1824   56.7339 C.ar    1  ZINC000509132103   -0.1200
     27 C27       -10.6137    1.4972   56.1525 C.ar    1  ZINC000509132103   -0.1100
     28 C28        -8.6855    1.5387   53.7931 C.3     1  ZINC000509132103    0.1200
     29 N29        -3.0273    1.9929   47.4823 N.ar    1  ZINC000509132103   -0.1900
     30 N30        -2.4618    1.4385   46.4722 N.ar    1  ZINC000509132103   -0.3000
     31 H31        -1.1588    1.5045   44.1685 H       1  ZINC000509132103    0.0600
     32 H32        -0.8501   -0.0953   43.4519 H       1  ZINC000509132103    0.1000
     33 H33        -2.4524    0.2824   44.1289 H       1  ZINC000509132103    0.0600
     34 H34        -0.3505   -0.6186   48.0227 H       1  ZINC000509132103    0.1600
     35 H35        -1.4502    0.4749   49.9832 H       1  ZINC000509132103    0.1600
     36 H36        -2.7635    2.3297   50.7588 H       1  ZINC000509132103    0.1100
     37 H37        -3.5814    3.4194   49.6134 H       1  ZINC000509132103    0.1000
     38 H38        -4.7482    2.1358   52.5353 H       1  ZINC000509132103    0.1100
     39 H39        -5.6411    3.3789   51.6267 H       1  ZINC000509132103    0.1100
     40 H40        -5.7748    3.3161   53.8810 H       1  ZINC000509132103    0.1000
     41 H41        -7.3650    4.1033   54.0111 H       1  ZINC000509132103    0.0900
     42 H42        -5.5732    4.3733   56.1842 H       1  ZINC000509132103    0.1200
     43 H43        -5.6389    3.8338   58.5816 H       1  ZINC000509132103    0.1300
     44 H44        -7.0021    1.9384   59.3750 H       1  ZINC000509132103    0.1200
     45 H45        -8.2779    0.5900   57.7665 H       1  ZINC000509132103    0.1200
     46 H46        -9.4190   -1.6210   55.6753 H       1  ZINC000509132103    0.1200
     47 H47       -11.5783   -2.1814   56.7177 H       1  ZINC000509132103    0.1200
     48 H48       -13.1213   -0.3859   57.3951 H       1  ZINC000509132103    0.1200
     49 H49       -12.5045    1.9700   57.0309 H       1  ZINC000509132103    0.1200
     50 H50       -10.3432    2.5305   55.9927 H       1  ZINC000509132103    0.1200
     51 H51        -9.4246    2.3282   53.9297 H       1  ZINC000509132103    0.0800
     52 H52        -9.0457    0.8186   53.0584 H       1  ZINC000509132103    0.1000
@<TRIPOS>BOND
     1     1     2    1
     2     1    31    1
     3     1    32    1
     4     1    33    1
     5     2     3    1
     6     3    30   ar
     7     3     4   ar
     8     4     5   ar
     9     4    34    1
    10     5     6   ar
    11     5    35    1
    12     6     7    1
    13     6    29   ar
    14     7     8    1
    15     7    36    1
    16     7    37    1
    17     8     9    1
    18     9    10    1
    19     9    38    1
    20     9    39    1
    21    10    11    2
    22    10    12   am
    23    12    28    1
    24    12    13    1
    25    13    14    1
    26    13    40    1
    27    13    41    1
    28    14    19   ar
    29    14    15   ar
    30    15    16   ar
    31    15    42    1
    32    16    17   ar
    33    16    43    1
    34    17    18   ar
    35    17    44    1
    36    18    19   ar
    37    18    45    1
    38    19    20    1
    39    20    21    1
    40    20    22    1
    41    20    28    1
    42    22    27   ar
    43    22    23   ar
    44    23    24   ar
    45    23    46    1
    46    24    25   ar
    47    24    47    1
    48    25    26   ar
    49    25    48    1
    50    26    27   ar
    51    26    49    1
    52    27    50    1
    53    28    51    1
    54    28    52    1
    55    29    30   ar
@<TRIPOS>SUBSTRUCTURE
     1 ZINC000509132103        1 TEMP              0 ****  ****    0 ROOT


##########                                Name:    ZINC000981048968
##########                DOCK_Rotatable_Bonds:                   7
##########                         Heavy_Atoms:                  25
##########                    Molecular_Weight:             344.414
##########                DOCK_Rotatable_Bonds:                   7
##########                       Formal_Charge:                0.02
##########                     HBond_Acceptors:                   7
##########                        HBond_Donors:                   2
##########                         Heavy_Atoms:                  25
##########                          Grid_Score:          -35.899319
##########                     Grid_vdw_energy:          -35.633999
##########                      Grid_es_energy:           -0.265319
##########           Internal_energy_repulsive:            4.168361

@<TRIPOS>MOLECULE
ZINC000981048968
 49 52 1 0 0
SMALL
USER_CHARGES


@<TRIPOS>ATOM
      1 C1        -10.7825   -2.9783   58.3753 C.3     1  ZINC000981048968   -0.0800
      2 C2        -10.4157   -2.1931   57.1424 C.2     1  ZINC000981048968   -0.0100
      3 C3         -9.5140   -1.2006   57.0918 C.2     1  ZINC000981048968   -0.1600
      4 C4         -9.4956   -0.7423   55.6950 C.2     1  ZINC000981048968   -0.2300
      5 C5         -8.6675    0.3334   55.1213 C.2     1  ZINC000981048968    0.5900
      6 O6         -8.2861    1.2486   55.8256 O.2     1  ZINC000981048968   -0.5300
      7 N7         -8.3330    0.3030   53.8160 N.am    1  ZINC000981048968   -0.7300
      8 C8         -7.5113    1.3732   53.2453 C.3     1  ZINC000981048968    0.1500
      9 H9         -6.8653    1.7875   54.0194 H       1  ZINC000981048968    0.0900
     10 C10        -8.4193    2.4751   52.6953 C.3     1  ZINC000981048968   -0.1300
     11 C11        -7.5613    3.5928   52.0992 C.3     1  ZINC000981048968   -0.1200
     12 C12        -6.7020    3.0273   50.9666 C.3     1  ZINC000981048968   -0.1100
     13 C13        -5.7940    1.9255   51.5166 C.3     1  ZINC000981048968    0.1000
     14 H14        -5.1481    2.3397   52.2908 H       1  ZINC000981048968    0.0500
     15 N15        -4.9690    1.3826   50.4292 N.3     1  ZINC000981048968   -0.6800
     16 C16        -3.7775    2.2127   50.2075 C.3     1  ZINC000981048968    0.1500
     17 C17        -2.9420    1.6088   49.1082 C.2     1  ZINC000981048968    0.1800
     18 N18        -1.9805    0.7477   49.2578 N.2     1  ZINC000981048968   -0.3800
     19 O19        -1.5058    0.4570   48.1800 O.3     1  ZINC000981048968    0.0800
     20 C20        -2.1388    1.1253   47.2111 C.2     1  ZINC000981048968    0.2100
     21 C21        -1.8539    1.0476   45.7334 C.3     1  ZINC000981048968   -0.0800
     22 C22        -0.3968    0.8659   45.3035 C.3     1  ZINC000981048968   -0.1600
     23 C23        -1.3832   -0.2966   45.1744 C.3     1  ZINC000981048968   -0.1500
     24 N24        -3.0586    1.8578   47.7916 N.2     1  ZINC000981048968   -0.4600
     25 C25        -6.6520    0.8078   52.1127 C.3     1  ZINC000981048968   -0.1300
     26 C26       -10.4044   -1.5214   55.0408 C.2     1  ZINC000981048968    0.0200
     27 O27       -10.9345   -2.3786   55.9186 O.3     1  ZINC000981048968   -0.1700
     28 H28       -11.5369   -3.7228   58.1207 H       1  ZINC000981048968    0.0800
     29 H29        -9.8957   -3.4782   58.7648 H       1  ZINC000981048968    0.0900
     30 H30       -11.1803   -2.3020   59.1319 H       1  ZINC000981048968    0.0900
     31 H31        -8.9229   -0.8167   57.9101 H       1  ZINC000981048968    0.1600
     32 H32        -8.6361   -0.4275   53.2545 H       1  ZINC000981048968    0.4000
     33 H33        -9.0653    2.0608   51.9211 H       1  ZINC000981048968    0.0700
     34 H34        -9.0314    2.8779   53.5021 H       1  ZINC000981048968    0.0700
     35 H35        -8.2081    4.3778   51.7074 H       1  ZINC000981048968    0.0700
     36 H36        -6.9152    4.0070   52.8733 H       1  ZINC000981048968    0.0600
     37 H37        -7.3480    2.6130   50.1925 H       1  ZINC000981048968    0.0700
     38 H38        -6.0906    3.8236   50.5420 H       1  ZINC000981048968    0.0700
     39 H39        -4.7128    0.4241   50.6136 H       1  ZINC000981048968    0.3500
     40 H40        -4.0839    3.2185   49.9202 H       1  ZINC000981048968    0.1100
     41 H41        -3.1914    2.2595   51.1253 H       1  ZINC000981048968    0.0600
     42 H42        -2.4935    1.6605   45.0984 H       1  ZINC000981048968    0.1500
     43 H43        -0.0775    1.3594   44.3856 H       1  ZINC000981048968    0.1200
     44 H44         0.3557    0.8026   46.0895 H       1  ZINC000981048968    0.1100
     45 H45        -1.2796   -1.1247   45.8755 H       1  ZINC000981048968    0.1000
     46 H46        -1.7128   -0.5678   44.1715 H       1  ZINC000981048968    0.1200
     47 H47        -6.0052    0.0228   52.5045 H       1  ZINC000981048968    0.0700
     48 H48        -7.2980    0.3935   51.3386 H       1  ZINC000981048968    0.0800
     49 H49       -10.6509   -1.4586   53.9912 H       1  ZINC000981048968    0.2100
@<TRIPOS>BOND
     1     1     2    1
     2     1    28    1
     3     1    29    1
     4     1    30    1
     5     2    27    1
     6     2     3    2
     7     3     4    1
     8     3    31    1
     9     4     5    1
    10     4    26    2
    11     5     6    2
    12     5     7   am
    13     7     8    1
    14     7    32    1
    15     8     9    1
    16     8    25    1
    17     8    10    1
    18    10    11    1
    19    10    33    1
    20    10    34    1
    21    11    12    1
    22    11    35    1
    23    11    36    1
    24    12    13    1
    25    12    37    1
    26    12    38    1
    27    13    14    1
    28    13    15    1
    29    13    25    1
    30    15    16    1
    31    15    39    1
    32    16    17    1
    33    16    40    1
    34    16    41    1
    35    17    24    1
    36    17    18    2
    37    18    19    1
    38    19    20    1
    39    20    21    1
    40    20    24    2
    41    21    23    1
    42    21    22    1
    43    21    42    1
    44    22    23    1
    45    22    43    1
    46    22    44    1
    47    23    45    1
    48    23    46    1
    49    25    47    1
    50    25    48    1
    51    26    27    1
    52    26    49    1
@<TRIPOS>SUBSTRUCTURE
     1 ZINC000981048968        1 TEMP              0 ****  ****    0 ROOT


##########                                Name:    ZINC000546115054
##########                DOCK_Rotatable_Bonds:                  10
##########                         Heavy_Atoms:                  26
##########                    Molecular_Weight:             363.457
##########                DOCK_Rotatable_Bonds:                  10
##########                       Formal_Charge:        -4.39584e-07
##########                     HBond_Acceptors:                   7
##########                        HBond_Donors:                   2
##########                         Heavy_Atoms:                  26
##########                          Grid_Score:          -35.867226
##########                     Grid_vdw_energy:          -34.912697
##########                      Grid_es_energy:           -0.954529
##########           Internal_energy_repulsive:           24.547039

@<TRIPOS>MOLECULE
ZINC000546115054
 55 56 1 0 0
SMALL
USER_CHARGES


@<TRIPOS>ATOM
      1 C1         -7.7102    1.0864   52.4501 C.3     1  ZINC000546115054   -0.1500
      2 C2         -6.7252    0.5871   51.3910 C.3     1  ZINC000546115054    0.0600
      3 O3         -6.2824    1.6887   50.5955 O.3     1  ZINC000546115054   -0.3700
      4 C4         -5.4289    2.6007   51.2896 C.3     1  ZINC000546115054    0.0500
      5 H5         -5.1345    2.1682   52.2459 H       1  ZINC000546115054    0.0700
      6 C6         -6.1742    3.9161   51.5309 C.3     1  ZINC000546115054    0.0400
      7 O7         -5.3001    4.8463   52.1734 O.3     1  ZINC000546115054   -0.3700
      8 C8         -4.1391    5.1792   51.4096 C.3     1  ZINC000546115054    0.0600
      9 C9         -3.3122    3.9147   51.1634 C.3     1  ZINC000546115054   -0.1600
     10 C10        -4.1804    2.8762   50.4462 C.3     1  ZINC000546115054    0.1700
     11 H11        -4.4784    3.2610   49.4709 H       1  ZINC000546115054    0.1000
     12 N12        -3.4188    1.6368   50.2722 N.am    1  ZINC000546115054   -0.7300
     13 C13        -2.4320    1.5753   49.3562 C.2     1  ZINC000546115054    0.7200
     14 O14        -2.1748    2.5478   48.6734 O.2     1  ZINC000546115054   -0.5900
     15 N15        -1.7303    0.4356   49.1972 N.am    1  ZINC000546115054   -0.7200
     16 C16        -0.6589    0.3681   48.2003 C.3     1  ZINC000546115054    0.1600
     17 H17        -0.5303    1.3470   47.7384 H       1  ZINC000546115054    0.1200
     18 C18         0.6459   -0.0498   48.8815 C.3     1  ZINC000546115054   -0.1000
     19 C19         1.2295    1.1298   49.6155 C.ar    1  ZINC000546115054   -0.0800
     20 C20         1.4230    2.3285   48.9545 C.ar    1  ZINC000546115054   -0.1100
     21 C21         1.9584    3.4104   49.6278 C.ar    1  ZINC000546115054   -0.1200
     22 C22         2.3001    3.2941   50.9622 C.ar    1  ZINC000546115054   -0.1200
     23 C23         2.1059    2.0958   51.6234 C.ar    1  ZINC000546115054   -0.1200
     24 C24         1.5664    1.0150   50.9513 C.ar    1  ZINC000546115054   -0.1100
     25 C25        -1.0197   -0.6430   47.1427 C.2     1  ZINC000546115054    0.5000
     26 O26        -0.8615   -1.8263   47.3560 O.2     1  ZINC000546115054   -0.5200
     27 N27        -1.5181   -0.2322   45.9598 N.am    1  ZINC000546115054   -0.6200
     28 C28        -1.8672   -1.2150   44.9310 C.3     1  ZINC000546115054    0.0800
     29 C29        -1.7108    1.1972   45.7029 C.3     1  ZINC000546115054    0.0700
     30 H30        -8.0481    0.2462   53.0568 H       1  ZINC000546115054    0.0700
     31 H31        -7.2170    1.8200   53.0877 H       1  ZINC000546115054    0.0600
     32 H32        -8.5672    1.5486   51.9601 H       1  ZINC000546115054    0.0600
     33 H33        -5.8682    0.1249   51.8809 H       1  ZINC000546115054    0.0500
     34 H34        -7.2185   -0.1465   50.7533 H       1  ZINC000546115054    0.0500
     35 H35        -6.5047    4.3270   50.5770 H       1  ZINC000546115054    0.0600
     36 H36        -7.0400    3.7319   52.1671 H       1  ZINC000546115054    0.1000
     37 H37        -4.4430    5.6067   50.4540 H       1  ZINC000546115054    0.0600
     38 H38        -3.5389    5.9050   51.9581 H       1  ZINC000546115054    0.1000
     39 H39        -2.4493    4.1586   50.5437 H       1  ZINC000546115054    0.0900
     40 H40        -2.9739    3.5093   52.1170 H       1  ZINC000546115054    0.0800
     41 H41        -3.6248    0.8606   50.8160 H       1  ZINC000546115054    0.3900
     42 H42        -1.9347   -0.3399   49.7428 H       1  ZINC000546115054    0.4000
     43 H43         0.4449   -0.8545   49.5886 H       1  ZINC000546115054    0.0900
     44 H44         1.3540   -0.3959   48.1287 H       1  ZINC000546115054    0.1100
     45 H45         1.1560    2.4193   47.9120 H       1  ZINC000546115054    0.1200
     46 H46         2.1102    4.3467   49.1112 H       1  ZINC000546115054    0.1200
     47 H47         2.7191    4.1392   51.4880 H       1  ZINC000546115054    0.1200
     48 H48         2.3730    2.0048   52.6659 H       1  ZINC000546115054    0.1200
     49 H49         1.4146    0.0787   51.4679 H       1  ZINC000546115054    0.1200
     50 H50        -2.9065   -1.5187   45.0565 H       1  ZINC000546115054    0.0600
     51 H51        -1.7350   -0.7707   43.9444 H       1  ZINC000546115054    0.0700
     52 H52        -1.2198   -2.0866   45.0267 H       1  ZINC000546115054    0.0800
     53 H53        -0.8060    1.6118   45.2585 H       1  ZINC000546115054    0.0600
     54 H54        -2.5475    1.3336   45.0176 H       1  ZINC000546115054    0.0800
     55 H55        -1.9225    1.7098   46.6412 H       1  ZINC000546115054    0.0700
@<TRIPOS>BOND
     1     1     2    1
     2     1    30    1
     3     1    31    1
     4     1    32    1
     5     2     3    1
     6     2    33    1
     7     2    34    1
     8     3     4    1
     9     4     5    1
    10     4    10    1
    11     4     6    1
    12     6     7    1
    13     6    35    1
    14     6    36    1
    15     7     8    1
    16     8     9    1
    17     8    37    1
    18     8    38    1
    19     9    10    1
    20     9    39    1
    21     9    40    1
    22    10    11    1
    23    10    12    1
    24    12    13   am
    25    12    41    1
    26    13    14    2
    27    13    15   am
    28    15    16    1
    29    15    42    1
    30    16    17    1
    31    16    18    1
    32    16    25    1
    33    18    19    1
    34    18    43    1
    35    18    44    1
    36    19    24   ar
    37    19    20   ar
    38    20    21   ar
    39    20    45    1
    40    21    22   ar
    41    21    46    1
    42    22    23   ar
    43    22    47    1
    44    23    24   ar
    45    23    48    1
    46    24    49    1
    47    25    26    2
    48    25    27   am
    49    27    28    1
    50    27    29    1
    51    28    50    1
    52    28    51    1
    53    28    52    1
    54    29    53    1
    55    29    54    1
    56    29    55    1
@<TRIPOS>SUBSTRUCTURE
     1 ZINC000546115054        1 TEMP              0 ****  ****    0 ROOT


##########                                Name:    ZINC000809503567
##########                DOCK_Rotatable_Bonds:                   9
##########                         Heavy_Atoms:                  26
##########                    Molecular_Weight:             353.378
##########                DOCK_Rotatable_Bonds:                   9
##########                       Formal_Charge:          -0.0200002
##########                     HBond_Acceptors:                   7
##########                        HBond_Donors:                   1
##########                         Heavy_Atoms:                  26
##########                          Grid_Score:          -35.865341
##########                     Grid_vdw_energy:          -35.955349
##########                      Grid_es_energy:            0.090007
##########           Internal_energy_repulsive:            8.407191

@<TRIPOS>MOLECULE
ZINC000809503567
 45 46 1 0 0
SMALL
USER_CHARGES


@<TRIPOS>ATOM
      1 C1          2.3379   -0.1137   47.1546 C.3     1  ZINC000809503567    0.0200
      2 O2          1.0231   -0.5492   46.8027 O.3     1  ZINC000809503567   -0.3100
      3 C3         -0.0172    0.1530   47.3187 C.ar    1  ZINC000809503567    0.1900
      4 C4          0.0235    0.5933   48.6323 C.ar    1  ZINC000809503567   -0.2100
      5 C5         -1.0361    1.3080   49.1564 C.ar    1  ZINC000809503567   -0.0200
      6 C6         -2.1453    1.5896   48.3766 C.ar    1  ZINC000809503567   -0.1500
      7 C7         -3.2946    2.3697   48.9609 C.3     1  ZINC000809503567    0.1700
      8 N8         -4.0488    1.5137   49.8799 N.am    1  ZINC000809503567   -0.7000
      9 C9         -5.3489    1.7700   50.1259 C.2     1  ZINC000809503567    0.5100
     10 O10        -5.8944    2.7106   49.5873 O.2     1  ZINC000809503567   -0.4900
     11 C11        -6.1188    0.8956   51.0620 C.2     1  ZINC000809503567    0.5100
     12 O12        -6.5560   -0.1689   50.6769 O.2     1  ZINC000809503567   -0.5000
     13 N13        -6.3273    1.2892   52.3340 N.am    1  ZINC000809503567   -0.4600
     14 C14        -5.7978    2.5734   52.7996 C.3     1  ZINC000809503567    0.0800
     15 O15        -7.0581    0.4615   53.2205 O.3     1  ZINC000809503567   -0.1100
     16 C16        -8.4450    0.7926   53.3149 C.3     1  ZINC000809503567    0.0800
     17 C17        -9.0391    0.1258   54.5287 C.ar    1  ZINC000809503567   -0.0900
     18 C18        -8.9359    0.7285   55.7684 C.ar    1  ZINC000809503567   -0.1000
     19 C19        -9.4809    0.1168   56.8819 C.ar    1  ZINC000809503567   -0.1300
     20 C20       -10.1295   -1.0974   56.7556 C.ar    1  ZINC000809503567   -0.1100
     21 C21       -10.2335   -1.6997   55.5156 C.ar    1  ZINC000809503567   -0.1300
     22 C22        -9.6923   -1.0859   54.4015 C.ar    1  ZINC000809503567   -0.0800
     23 C23        -2.2025    1.1598   47.0679 C.ar    1  ZINC000809503567   -0.0100
     24 C24        -1.1355    0.4412   46.5237 C.ar    1  ZINC000809503567   -0.0600
     25 C25        -1.1883   -0.0082   45.1651 C.1     1  ZINC000809503567    0.2600
     26 N26        -1.2303   -0.3648   44.0873 N.1     1  ZINC000809503567   -0.4100
     27 H27         2.4595   -0.1628   48.2367 H       1  ZINC000809503567    0.0600
     28 H28         3.0746   -0.7594   46.6765 H       1  ZINC000809503567    0.1100
     29 H29         2.4825    0.9132   46.8189 H       1  ZINC000809503567    0.0600
     30 H30         0.8847    0.3771   49.2471 H       1  ZINC000809503567    0.1400
     31 H31        -0.9995    1.6489   50.1806 H       1  ZINC000809503567    0.1400
     32 H32        -2.9093    3.2336   49.5026 H       1  ZINC000809503567    0.0900
     33 H33        -3.9501    2.7071   48.1580 H       1  ZINC000809503567    0.0900
     34 H34        -3.6125    0.7625   50.3114 H       1  ZINC000809503567    0.4100
     35 H35        -6.5381    3.3550   52.6290 H       1  ZINC000809503567    0.0800
     36 H36        -5.5754    2.5101   53.8648 H       1  ZINC000809503567    0.0800
     37 H37        -4.8860    2.8107   52.2515 H       1  ZINC000809503567    0.0900
     38 H38        -8.5552    1.8734   53.4036 H       1  ZINC000809503567    0.0700
     39 H39        -8.9629    0.4468   52.4204 H       1  ZINC000809503567    0.0600
     40 H40        -8.4291    1.6770   55.8672 H       1  ZINC000809503567    0.1200
     41 H41        -9.3996    0.5873   57.8506 H       1  ZINC000809503567    0.1200
     42 H42       -10.5546   -1.5756   57.6255 H       1  ZINC000809503567    0.1200
     43 H43       -10.7400   -2.6485   55.4170 H       1  ZINC000809503567    0.1200
     44 H44        -9.7736   -1.5564   53.4328 H       1  ZINC000809503567    0.1300
     45 H45        -3.0694    1.3816   46.4633 H       1  ZINC000809503567    0.1400
@<TRIPOS>BOND
     1     1     2    1
     2     1    27    1
     3     1    28    1
     4     1    29    1
     5     2     3    1
     6     3    24   ar
     7     3     4   ar
     8     4     5   ar
     9     4    30    1
    10     5     6   ar
    11     5    31    1
    12     6     7    1
    13     6    23   ar
    14     7     8    1
    15     7    32    1
    16     7    33    1
    17     8     9   am
    18     8    34    1
    19     9    10    2
    20     9    11    1
    21    11    12    2
    22    11    13   am
    23    13    14    1
    24    13    15    1
    25    14    35    1
    26    14    36    1
    27    14    37    1
    28    15    16    1
    29    16    17    1
    30    16    38    1
    31    16    39    1
    32    17    22   ar
    33    17    18   ar
    34    18    19   ar
    35    18    40    1
    36    19    20   ar
    37    19    41    1
    38    20    21   ar
    39    20    42    1
    40    21    22   ar
    41    21    43    1
    42    22    44    1
    43    23    24   ar
    44    23    45    1
    45    24    25    1
    46    25    26    3
@<TRIPOS>SUBSTRUCTURE
     1 ZINC000809503567        1 TEMP              0 ****  ****    0 ROOT


##########                                Name:    ZINC001090961577
##########                DOCK_Rotatable_Bonds:                   9
##########                         Heavy_Atoms:                  24
##########                    Molecular_Weight:             352.458
##########                DOCK_Rotatable_Bonds:                   9
##########                       Formal_Charge:                0.02
##########                     HBond_Acceptors:                   8
##########                        HBond_Donors:                   1
##########                         Heavy_Atoms:                  24
##########                          Grid_Score:          -35.859772
##########                     Grid_vdw_energy:          -34.968006
##########                      Grid_es_energy:           -0.891767
##########           Internal_energy_repulsive:            6.649863

@<TRIPOS>MOLECULE
ZINC001090961577
 48 49 1 0 0
SMALL
USER_CHARGES


@<TRIPOS>ATOM
      1 C1        -10.1916   -1.9213   55.6305 C.3     1  ZINC001090961577   -0.1400
      2 C2        -11.2233   -0.9565   55.0426 C.3     1  ZINC001090961577   -0.0900
      3 S3        -10.4175    0.6176   54.6383 S.3     1  ZINC001090961577   -0.2700
      4 C4         -9.2186    0.1463   53.3613 C.3     1  ZINC001090961577   -0.0700
      5 C5         -8.4769    1.3922   52.8732 C.3     1  ZINC001090961577   -0.1200
      6 C6         -7.4142    0.9889   51.8837 C.2     1  ZINC001090961577    0.5400
      7 O7         -7.3452   -0.1605   51.5028 O.2     1  ZINC001090961577   -0.5300
      8 N8         -6.5405    1.9054   51.4222 N.am    1  ZINC001090961577   -0.6200
      9 C9         -6.5106    3.3264   51.7984 C.3     1  ZINC001090961577    0.1100
     10 C10        -5.3297    3.9748   51.0457 C.3     1  ZINC001090961577   -0.1100
     11 H11        -5.6728    4.4519   50.1276 H       1  ZINC001090961577    0.0900
     12 C12        -4.6063    4.9838   51.9400 C.3     1  ZINC001090961577   -0.1400
     13 C13        -4.4142    2.7636   50.7260 C.3     1  ZINC001090961577    0.1500
     14 H14        -3.7853    2.5130   51.5802 H       1  ZINC001090961577    0.1200
     15 N15        -3.6000    3.0206   49.5355 N.pl3   1  ZINC001090961577   -0.6700
     16 C16        -2.7659    2.0379   49.0453 C.ar    1  ZINC001090961577    0.5900
     17 N17        -1.9989    1.3630   49.8917 N.ar    1  ZINC001090961577   -0.5700
     18 C18        -1.1872    0.4152   49.4628 C.ar    1  ZINC001090961577    0.2700
     19 C19        -1.1437    0.1269   48.0919 C.ar    1  ZINC001090961577   -0.3000
     20 C20        -0.2523   -0.9240   47.5678 C.2     1  ZINC001090961577    0.5300
     21 O21        -0.6115   -2.0848   47.5753 O.2     1  ZINC001090961577   -0.5100
     22 O22         0.9606   -0.5973   47.0805 O.3     1  ZINC001090961577   -0.3600
     23 C23         1.7389    0.3650   47.8400 C.3     1  ZINC001090961577    0.0400
     24 C24        -1.9701    0.8634   47.2322 C.ar    1  ZINC001090961577    0.2600
     25 N25        -2.7578    1.7915   47.7416 N.ar    1  ZINC001090961577   -0.5700
     26 C26        -5.4523    1.6477   50.4615 C.3     1  ZINC001090961577    0.0900
     27 H27       -10.6758   -2.8672   55.8734 H       1  ZINC001090961577    0.0700
     28 H28        -9.4000   -2.0950   54.9017 H       1  ZINC001090961577    0.0700
     29 H29        -9.7641   -1.4891   56.5352 H       1  ZINC001090961577    0.0700
     30 H30       -11.6508   -1.3887   54.1378 H       1  ZINC001090961577    0.0800
     31 H31       -12.0149   -0.7827   55.7715 H       1  ZINC001090961577    0.0800
     32 H32        -8.5032   -0.5625   53.7784 H       1  ZINC001090961577    0.0900
     33 H33        -9.7422   -0.3161   52.5243 H       1  ZINC001090961577    0.0900
     34 H34        -9.1823    2.0701   52.3925 H       1  ZINC001090961577    0.1000
     35 H35        -8.0117    1.8938   53.7217 H       1  ZINC001090961577    0.1000
     36 H36        -7.4445    3.8067   51.5070 H       1  ZINC001090961577    0.0800
     37 H37        -6.3620    3.4220   52.8740 H       1  ZINC001090961577    0.0800
     38 H38        -4.2457    4.4810   52.8372 H       1  ZINC001090961577    0.0600
     39 H39        -3.7620    5.4098   51.3980 H       1  ZINC001090961577    0.0600
     40 H40        -5.2960    5.7795   52.2216 H       1  ZINC001090961577    0.0700
     41 H41        -3.6476    3.8821   49.0920 H       1  ZINC001090961577    0.4200
     42 H42        -0.5655   -0.1299   50.1577 H       1  ZINC001090961577    0.1800
     43 H43         2.6913    0.5384   47.3389 H       1  ZINC001090961577    0.1100
     44 H44         1.1887    1.3034   47.9094 H       1  ZINC001090961577    0.0700
     45 H45         1.9208   -0.0244   48.8416 H       1  ZINC001090961577    0.0700
     46 H46        -1.9655    0.6713   46.1695 H       1  ZINC001090961577    0.1800
     47 H47        -5.0093    0.6677   50.6388 H       1  ZINC001090961577    0.0900
     48 H48        -5.8302    1.7152   49.4413 H       1  ZINC001090961577    0.0800
@<TRIPOS>BOND
     1     1     2    1
     2     1    27    1
     3     1    28    1
     4     1    29    1
     5     2     3    1
     6     2    30    1
     7     2    31    1
     8     3     4    1
     9     4     5    1
    10     4    32    1
    11     4    33    1
    12     5     6    1
    13     5    34    1
    14     5    35    1
    15     6     7    2
    16     6     8   am
    17     8    26    1
    18     8     9    1
    19     9    10    1
    20     9    36    1
    21     9    37    1
    22    10    11    1
    23    10    12    1
    24    10    13    1
    25    12    38    1
    26    12    39    1
    27    12    40    1
    28    13    14    1
    29    13    15    1
    30    13    26    1
    31    15    16    1
    32    15    41    1
    33    16    25   ar
    34    16    17   ar
    35    17    18   ar
    36    18    19   ar
    37    18    42    1
    38    19    20    1
    39    19    24   ar
    40    20    21    2
    41    20    22    1
    42    22    23    1
    43    23    43    1
    44    23    44    1
    45    23    45    1
    46    24    25   ar
    47    24    46    1
    48    26    47    1
    49    26    48    1
@<TRIPOS>SUBSTRUCTURE
     1 ZINC001090961577        1 TEMP              0 ****  ****    0 ROOT


##########                                Name:    ZINC000020646552
##########                DOCK_Rotatable_Bonds:                   5
##########                         Heavy_Atoms:                  29
##########                    Molecular_Weight:             412.556
##########                DOCK_Rotatable_Bonds:                   5
##########                       Formal_Charge:          -0.0200012
##########                     HBond_Acceptors:                   7
##########                        HBond_Donors:                   0
##########                         Heavy_Atoms:                  29
##########                          Grid_Score:          -35.825085
##########                     Grid_vdw_energy:          -34.952530
##########                      Grid_es_energy:           -0.872556
##########           Internal_energy_repulsive:           14.474113

@<TRIPOS>MOLECULE
ZINC000020646552
 57 60 1 0 0
SMALL
USER_CHARGES


@<TRIPOS>ATOM
      1 C1         -8.2339    0.8523   65.1663 C.3     1  ZINC000020646552    0.0200
      2 N2         -8.5733    0.7190   63.7432 N.3     1  ZINC000020646552   -0.5400
      3 C3         -7.9156   -0.4544   63.1529 C.3     1  ZINC000020646552    0.0400
      4 C4         -8.4340   -0.6624   61.7259 C.3     1  ZINC000020646552    0.1200
      5 N5         -8.2580    0.5914   60.9775 N.am    1  ZINC000020646552   -0.6100
      6 C6         -7.6431    0.6007   59.7781 C.2     1  ZINC000020646552    0.5300
      7 O7         -7.2277   -0.4343   59.3017 O.2     1  ZINC000020646552   -0.5200
      8 C8         -7.4719    1.8972   59.0292 C.3     1  ZINC000020646552   -0.1500
      9 S9         -9.0531    2.3824   58.2939 S.3     1  ZINC000020646552    0.0500
     10 C10        -9.0767    1.3184   56.8896 C.ar    1  ZINC000020646552    0.1500
     11 N11        -8.2874    1.5586   55.8481 N.ar    1  ZINC000020646552   -0.5200
     12 C12        -8.3050    0.7585   54.7912 C.ar    1  ZINC000020646552    0.3800
     13 C13        -7.4093    1.0530   53.6462 C.ar    1  ZINC000020646552   -0.0500
     14 C14        -6.3900    1.9941   53.7797 C.ar    1  ZINC000020646552   -0.0700
     15 C15        -5.5592    2.2638   52.7111 C.ar    1  ZINC000020646552   -0.1300
     16 C16        -5.7368    1.6022   51.5095 C.ar    1  ZINC000020646552   -0.1000
     17 C17        -6.7472    0.6675   51.3711 C.ar    1  ZINC000020646552   -0.1300
     18 C18        -7.5803    0.3856   52.4347 C.ar    1  ZINC000020646552   -0.0700
     19 N19        -9.1025   -0.2981   54.7323 N.ar    1  ZINC000020646552   -0.5200
     20 C20        -9.9170   -0.5957   55.7370 C.ar    1  ZINC000020646552    0.2100
     21 C21        -9.9232    0.2042   56.8566 C.ar    1  ZINC000020646552   -0.2100
     22 C22       -10.8136   -0.0864   58.0330 C.3     1  ZINC000020646552    0.1100
     23 O23       -11.8373   -1.0096   57.6597 O.3     1  ZINC000020646552   -0.3600
     24 C24       -11.3305   -2.1847   57.0170 C.3     1  ZINC000020646552    0.1100
     25 C25       -10.1836   -2.7686   57.8445 C.3     1  ZINC000020646552   -0.1800
     26 C26       -12.4485   -3.2209   56.8855 C.3     1  ZINC000020646552   -0.1400
     27 C27       -10.8129   -1.8015   55.6306 C.3     1  ZINC000020646552   -0.0900
     28 C28        -8.7712    1.8349   61.5724 C.3     1  ZINC000020646552    0.1100
     29 C29        -8.2395    1.9445   63.0054 C.3     1  ZINC000020646552    0.0400
     30 H30        -8.7932    1.6828   65.5969 H       1  ZINC000020646552    0.0700
     31 H31        -8.4913   -0.0689   65.6891 H       1  ZINC000020646552    0.0700
     32 H32        -7.1655    1.0419   65.2688 H       1  ZINC000020646552    0.0300
     33 H33        -6.8378   -0.2933   63.1284 H       1  ZINC000020646552    0.0400
     34 H34        -8.1383   -1.3366   63.7531 H       1  ZINC000020646552    0.0900
     35 H35        -7.8683   -1.4593   61.2434 H       1  ZINC000020646552    0.1000
     36 H36        -9.4912   -0.9260   61.7552 H       1  ZINC000020646552    0.0800
     37 H37        -7.1381    2.6733   59.7178 H       1  ZINC000020646552    0.1300
     38 H38        -6.7298    1.7666   58.2416 H       1  ZINC000020646552    0.1200
     39 H39        -6.2506    2.5114   54.7174 H       1  ZINC000020646552    0.1400
     40 H40        -4.7692    2.9931   52.8133 H       1  ZINC000020646552    0.1300
     41 H41        -5.0844    1.8164   50.6759 H       1  ZINC000020646552    0.1300
     42 H42        -6.8815    0.1542   50.4304 H       1  ZINC000020646552    0.1300
     43 H43        -8.3688   -0.3443   52.3256 H       1  ZINC000020646552    0.1300
     44 H44       -10.2182   -0.5139   58.8398 H       1  ZINC000020646552    0.0800
     45 H45       -11.2715    0.8410   58.3773 H       1  ZINC000020646552    0.1100
     46 H46       -10.5482   -3.0281   58.8383 H       1  ZINC000020646552    0.0700
     47 H47        -9.7997   -3.6627   57.3533 H       1  ZINC000020646552    0.0700
     48 H48        -9.3859   -2.0308   57.9313 H       1  ZINC000020646552    0.0600
     49 H49       -13.2614   -2.8048   56.2903 H       1  ZINC000020646552    0.0700
     50 H50       -12.0602   -4.1140   56.3961 H       1  ZINC000020646552    0.0800
     51 H51       -12.8203   -3.4819   57.8764 H       1  ZINC000020646552    0.0700
     52 H52       -11.6558   -1.5637   54.9817 H       1  ZINC000020646552    0.1000
     53 H53       -10.2551   -2.6372   55.2079 H       1  ZINC000020646552    0.1000
     54 H54        -8.4284    2.6888   60.9882 H       1  ZINC000020646552    0.0900
     55 H55        -9.8608    1.8113   61.5869 H       1  ZINC000020646552    0.0800
     56 H56        -8.6972    2.8021   63.4985 H       1  ZINC000020646552    0.0900
     57 H57        -7.1572    2.0722   62.9829 H       1  ZINC000020646552    0.0400
@<TRIPOS>BOND
     1     1     2    1
     2     1    30    1
     3     1    31    1
     4     1    32    1
     5     2    29    1
     6     2     3    1
     7     3     4    1
     8     3    33    1
     9     3    34    1
    10     4     5    1
    11     4    35    1
    12     4    36    1
    13     5     6   am
    14     5    28    1
    15     6     7    2
    16     6     8    1
    17     8     9    1
    18     8    37    1
    19     8    38    1
    20     9    10    1
    21    10    21   ar
    22    10    11   ar
    23    11    12   ar
    24    12    13    1
    25    12    19   ar
    26    13    18   ar
    27    13    14   ar
    28    14    15   ar
    29    14    39    1
    30    15    16   ar
    31    15    40    1
    32    16    17   ar
    33    16    41    1
    34    17    18   ar
    35    17    42    1
    36    18    43    1
    37    19    20   ar
    38    20    27    1
    39    20    21   ar
    40    21    22    1
    41    22    23    1
    42    22    44    1
    43    22    45    1
    44    23    24    1
    45    24    25    1
    46    24    26    1
    47    24    27    1
    48    25    46    1
    49    25    47    1
    50    25    48    1
    51    26    49    1
    52    26    50    1
    53    26    51    1
    54    27    52    1
    55    27    53    1
    56    28    29    1
    57    28    54    1
    58    28    55    1
    59    29    56    1
    60    29    57    1
@<TRIPOS>SUBSTRUCTURE
     1 ZINC000020646552        1 TEMP              0 ****  ****    0 ROOT


##########                                Name:    ZINC000185180600
##########                DOCK_Rotatable_Bonds:                   7
##########                         Heavy_Atoms:                  26
##########                    Molecular_Weight:             395.953
##########                DOCK_Rotatable_Bonds:                   7
##########                       Formal_Charge:          0.00999977
##########                     HBond_Acceptors:                   7
##########                        HBond_Donors:                   0
##########                         Heavy_Atoms:                  26
##########                          Grid_Score:          -35.744247
##########                     Grid_vdw_energy:          -34.525471
##########                      Grid_es_energy:           -1.218778
##########           Internal_energy_repulsive:           19.667200

@<TRIPOS>MOLECULE
ZINC000185180600
 52 53 1 0 0
SMALL
USER_CHARGES


@<TRIPOS>ATOM
      1 C1          0.2898    0.5055   47.3986 C.3     1  ZINC000185180600   -0.1500
      2 C2         -0.9100    0.1256   48.2686 C.3     1  ZINC000185180600   -0.0900
      3 C3         -0.8112   -1.3511   48.6567 C.3     1  ZINC000185180600   -0.1500
      4 C4         -0.9156    0.9860   49.5337 C.3     1  ZINC000185180600   -0.1300
      5 C5         -1.1349    2.4515   49.1526 C.3     1  ZINC000185180600    0.1300
      6 H6         -1.3419    2.5223   48.0849 H       1  ZINC000185180600    0.1100
      7 C7          0.1227    3.2580   49.4830 C.3     1  ZINC000185180600   -0.1600
      8 N8         -2.2708    2.9874   49.9068 N.am    1  ZINC000185180600   -0.6000
      9 C9         -2.0483    3.6487   51.1950 C.3     1  ZINC000185180600    0.0700
     10 C10        -3.5205    2.8721   49.4156 C.2     1  ZINC000185180600    0.5400
     11 O11        -3.7049    2.3233   48.3499 O.2     1  ZINC000185180600   -0.5300
     12 C12        -4.6888    3.4250   50.1905 C.3     1  ZINC000185180600   -0.5000
     13 S13        -5.1813    2.2381   51.4709 S.o     1  ZINC000185180600    1.3200
     14 O14        -5.6354    1.0399   50.8565 O.2     1  ZINC000185180600   -0.8000
     15 C15        -6.5758    3.0679   52.2817 C.3     1  ZINC000185180600   -0.3900
     16 C16        -7.1057    2.1936   53.3888 C.2     1  ZINC000185180600    0.1000
     17 N17        -7.1194    2.4930   54.6629 N.2     1  ZINC000185180600   -0.2800
     18 N18        -7.6915    1.4202   55.3589 N.pl3   1  ZINC000185180600   -0.3200
     19 C19        -7.8886    1.3470   56.7451 C.ar    1  ZINC000185180600    0.1700
     20 C20        -6.9065    1.8064   57.6122 C.ar    1  ZINC000185180600   -0.1300
     21 C21        -7.1028    1.7331   58.9773 C.ar    1  ZINC000185180600   -0.0800
     22 C22        -8.2772    1.2019   59.4810 C.ar    1  ZINC000185180600   -0.0500
     23 Cl23       -8.5211    1.1112   61.1974 Cl      1  ZINC000185180600   -0.0600
     24 C24        -9.2577    0.7434   58.6187 C.ar    1  ZINC000185180600   -0.0800
     25 C25        -9.0685    0.8202   57.2528 C.ar    1  ZINC000185180600   -0.1100
     26 C26        -8.0200    0.4679   54.4569 C.2     1  ZINC000185180600    0.0600
     27 C27        -7.6735    0.9246   53.2311 C.2     1  ZINC000185180600   -0.2500
     28 H28         0.2939   -0.1075   46.4973 H       1  ZINC000185180600    0.0500
     29 H29         0.2196    1.5575   47.1221 H       1  ZINC000185180600    0.0600
     30 H30         1.2110    0.3373   47.9566 H       1  ZINC000185180600    0.0500
     31 H31        -1.8311    0.2937   47.7107 H       1  ZINC000185180600    0.0700
     32 H32        -0.8905   -1.9682   47.7616 H       1  ZINC000185180600    0.0500
     33 H33         0.1473   -1.5361   49.1418 H       1  ZINC000185180600    0.0500
     34 H34        -1.6201   -1.6013   49.3431 H       1  ZINC000185180600    0.0500
     35 H35        -1.7192    0.6577   50.1927 H       1  ZINC000185180600    0.0700
     36 H36         0.0403    0.8833   50.0472 H       1  ZINC000185180600    0.0800
     37 H37         0.3296    3.1872   50.5508 H       1  ZINC000185180600    0.0600
     38 H38         0.9678    2.8592   48.9218 H       1  ZINC000185180600    0.0700
     39 H39        -0.0336    4.3021   49.2116 H       1  ZINC000185180600    0.0600
     40 H40        -1.8872    4.7146   51.0332 H       1  ZINC000185180600    0.0600
     41 H41        -2.9209    3.5059   51.8323 H       1  ZINC000185180600    0.0700
     42 H42        -1.1712    3.2179   51.6778 H       1  ZINC000185180600    0.0800
     43 H43        -4.4012    4.3663   50.6589 H       1  ZINC000185180600    0.1500
     44 H44        -5.5253    3.5968   49.5132 H       1  ZINC000185180600    0.1200
     45 H45        -6.2411    4.0181   52.6978 H       1  ZINC000185180600    0.1400
     46 H46        -7.3652    3.2486   51.5521 H       1  ZINC000185180600    0.1000
     47 H47        -5.9894    2.2203   57.2195 H       1  ZINC000185180600    0.1400
     48 H48        -6.3390    2.0903   59.6522 H       1  ZINC000185180600    0.1500
     49 H49       -10.1732    0.3289   59.0142 H       1  ZINC000185180600    0.1400
     50 H50        -9.8339    0.4622   56.5802 H       1  ZINC000185180600    0.1500
     51 H51        -8.4806   -0.4844   54.6752 H       1  ZINC000185180600    0.1800
     52 H52        -7.8050    0.3991   52.2968 H       1  ZINC000185180600    0.1700
@<TRIPOS>BOND
     1     1     2    1
     2     1    28    1
     3     1    29    1
     4     1    30    1
     5     2     3    1
     6     2     4    1
     7     2    31    1
     8     3    32    1
     9     3    33    1
    10     3    34    1
    11     4     5    1
    12     4    35    1
    13     4    36    1
    14     5     6    1
    15     5     7    1
    16     5     8    1
    17     7    37    1
    18     7    38    1
    19     7    39    1
    20     8     9    1
    21     8    10   am
    22     9    40    1
    23     9    41    1
    24     9    42    1
    25    10    11    2
    26    10    12    1
    27    12    13    1
    28    12    43    1
    29    12    44    1
    30    13    14    2
    31    13    15    1
    32    15    16    1
    33    15    45    1
    34    15    46    1
    35    16    27    1
    36    16    17    2
    37    17    18    1
    38    18    19    1
    39    18    26    1
    40    19    25   ar
    41    19    20   ar
    42    20    21   ar
    43    20    47    1
    44    21    22   ar
    45    21    48    1
    46    22    23    1
    47    22    24   ar
    48    24    25   ar
    49    24    49    1
    50    25    50    1
    51    26    27    2
    52    26    51    1
    53    27    52    1
@<TRIPOS>SUBSTRUCTURE
     1 ZINC000185180600        1 TEMP              0 ****  ****    0 ROOT


##########                                Name:    ZINC000745364361
##########                DOCK_Rotatable_Bonds:                   8
##########                         Heavy_Atoms:                  29
##########                    Molecular_Weight:             398.434
##########                DOCK_Rotatable_Bonds:                   8
##########                       Formal_Charge:          0.00999923
##########                     HBond_Acceptors:                   7
##########                        HBond_Donors:                   1
##########                         Heavy_Atoms:                  29
##########                          Grid_Score:          -35.729034
##########                     Grid_vdw_energy:          -34.398281
##########                      Grid_es_energy:           -1.330751
##########           Internal_energy_repulsive:           16.502892

@<TRIPOS>MOLECULE
ZINC000745364361
 52 54 1 0 0
SMALL
USER_CHARGES


@<TRIPOS>ATOM
      1 C1         -0.3466    3.8175   50.2838 C.3     1  ZINC000745364361   -0.1700
      2 C2         -0.8558    2.7231   49.3435 C.3     1  ZINC000745364361    0.0700
      3 H3         -0.1218    1.9190   49.2907 H       1  ZINC000745364361    0.1100
      4 O4         -1.0598    3.2800   48.0181 O.3     1  ZINC000745364361   -0.3200
      5 C5         -0.2886    2.7996   47.0301 C.2     1  ZINC000745364361    0.4700
      6 O6          0.7270    3.3767   46.7214 O.2     1  ZINC000745364361   -0.4900
      7 C7         -0.6896    1.5403   46.3058 C.3     1  ZINC000745364361   -0.0400
      8 H8         -0.9124    0.7587   47.0320 H       1  ZINC000745364361    0.1200
      9 C9         -1.9311    1.8148   45.4548 C.3     1  ZINC000745364361   -0.1400
     10 C10         0.4405    1.0915   45.4155 C.ar    1  ZINC000745364361   -0.0500
     11 C11         0.2693    1.0609   44.0442 C.ar    1  ZINC000745364361   -0.1000
     12 C12         1.3052    0.6493   43.2262 C.ar    1  ZINC000745364361   -0.0900
     13 C13         2.5130    0.2682   43.7786 C.ar    1  ZINC000745364361   -0.1500
     14 C14         2.6857    0.2989   45.1523 C.ar    1  ZINC000745364361    0.1000
     15 F15         3.8662   -0.0737   45.6936 F       1  ZINC000745364361   -0.1400
     16 C16         1.6496    0.7160   45.9701 C.ar    1  ZINC000745364361   -0.1400
     17 C17        -2.1604    2.1790   49.8660 C.2     1  ZINC000745364361    0.5200
     18 O18        -2.4241    1.0026   49.7318 O.2     1  ZINC000745364361   -0.5000
     19 N19        -3.0342    2.9994   50.4822 N.am    1  ZINC000745364361   -0.6700
     20 C20        -4.2468    2.4936   50.9678 C.ar    1  ZINC000745364361    0.1200
     21 C21        -5.1826    1.9681   50.0866 C.ar    1  ZINC000745364361   -0.1100
     22 C22        -6.3777    1.4696   50.5651 C.ar    1  ZINC000745364361   -0.1400
     23 C23        -6.6440    1.4934   51.9278 C.ar    1  ZINC000745364361    0.1500
     24 N24        -7.8568    0.9880   52.4133 N.am    1  ZINC000745364361   -0.5600
     25 C25        -8.8949    1.8020   53.0565 C.3     1  ZINC000745364361    0.0900
     26 C26       -10.1761    0.9398   53.0203 C.3     1  ZINC000745364361   -0.1300
     27 C27        -9.5920   -0.4905   52.9586 C.3     1  ZINC000745364361   -0.1500
     28 C28        -8.2219   -0.3038   52.3448 C.2     1  ZINC000745364361    0.5200
     29 O29        -7.5478   -1.1918   51.8670 O.2     1  ZINC000745364361   -0.5100
     30 C30        -5.7076    2.0175   52.8092 C.ar    1  ZINC000745364361   -0.1400
     31 C31        -4.5109    2.5125   52.3310 C.ar    1  ZINC000745364361   -0.0900
     32 H32         0.5970    4.2111   49.9059 H       1  ZINC000745364361    0.0800
     33 H33        -1.0806    4.6216   50.3365 H       1  ZINC000745364361    0.0800
     34 H34        -0.1935    3.3994   51.2786 H       1  ZINC000745364361    0.0800
     35 H35        -1.7083    2.5964   44.7285 H       1  ZINC000745364361    0.0700
     36 H36        -2.2211    0.9040   44.9309 H       1  ZINC000745364361    0.0800
     37 H37        -2.7484    2.1394   46.0988 H       1  ZINC000745364361    0.0800
     38 H38        -0.6744    1.3583   43.6115 H       1  ZINC000745364361    0.1300
     39 H39         1.1702    0.6255   42.1549 H       1  ZINC000745364361    0.1400
     40 H40         3.3217   -0.0539   43.1395 H       1  ZINC000745364361    0.1400
     41 H41         1.7833    0.7408   47.0415 H       1  ZINC000745364361    0.1400
     42 H42        -2.8234    3.9400   50.5895 H       1  ZINC000745364361    0.4100
     43 H43        -4.9756    1.9496   49.0267 H       1  ZINC000745364361    0.1300
     44 H44        -7.1057    1.0616   49.8796 H       1  ZINC000745364361    0.1600
     45 H45        -8.6171    2.0218   54.0874 H       1  ZINC000745364361    0.0800
     46 H46        -9.0470    2.7273   52.5008 H       1  ZINC000745364361    0.0900
     47 H47       -10.7670    1.0811   53.9253 H       1  ZINC000745364361    0.1000
     48 H48       -10.7682    1.1581   52.1316 H       1  ZINC000745364361    0.0900
     49 H49        -9.5112   -0.9132   53.9600 H       1  ZINC000745364361    0.1100
     50 H50       -10.2079   -1.1271   52.3234 H       1  ZINC000745364361    0.1100
     51 H51        -5.9145    2.0358   53.8690 H       1  ZINC000745364361    0.1300
     52 H52        -3.7828    2.9203   53.0165 H       1  ZINC000745364361    0.1400
@<TRIPOS>BOND
     1     1     2    1
     2     1    32    1
     3     1    33    1
     4     1    34    1
     5     2     3    1
     6     2     4    1
     7     2    17    1
     8     4     5    1
     9     5     6    2
    10     5     7    1
    11     7     8    1
    12     7     9    1
    13     7    10    1
    14     9    35    1
    15     9    36    1
    16     9    37    1
    17    10    16   ar
    18    10    11   ar
    19    11    12   ar
    20    11    38    1
    21    12    13   ar
    22    12    39    1
    23    13    14   ar
    24    13    40    1
    25    14    15    1
    26    14    16   ar
    27    16    41    1
    28    17    18    2
    29    17    19   am
    30    19    20    1
    31    19    42    1
    32    20    31   ar
    33    20    21   ar
    34    21    22   ar
    35    21    43    1
    36    22    23   ar
    37    22    44    1
    38    23    24    1
    39    23    30   ar
    40    24    28   am
    41    24    25    1
    42    25    26    1
    43    25    45    1
    44    25    46    1
    45    26    27    1
    46    26    47    1
    47    26    48    1
    48    27    28    1
    49    27    49    1
    50    27    50    1
    51    28    29    2
    52    30    31   ar
    53    30    51    1
    54    31    52    1
@<TRIPOS>SUBSTRUCTURE
     1 ZINC000745364361        1 TEMP              0 ****  ****    0 ROOT


##########                                Name:    ZINC000992031068
##########                DOCK_Rotatable_Bonds:                   8
##########                         Heavy_Atoms:                  25
##########                    Molecular_Weight:             342.401
##########                DOCK_Rotatable_Bonds:                   8
##########                       Formal_Charge:           0.0199999
##########                     HBond_Acceptors:                   8
##########                        HBond_Donors:                   2
##########                         Heavy_Atoms:                  25
##########                          Grid_Score:          -35.660980
##########                     Grid_vdw_energy:          -34.491005
##########                      Grid_es_energy:           -1.169974
##########           Internal_energy_repulsive:            7.374976

@<TRIPOS>MOLECULE
ZINC000992031068
 47 49 1 0 0
SMALL
USER_CHARGES


@<TRIPOS>ATOM
      1 C1         -1.5991    0.3505   44.9612 C.3     1  ZINC000992031068   -0.1100
      2 C2         -1.4240    0.3166   46.4577 C.ar    1  ZINC000992031068    0.1800
      3 C3         -2.2078    1.1182   47.2752 C.ar    1  ZINC000992031068   -0.1700
      4 C4         -2.0081    1.0506   48.6545 C.ar    1  ZINC000992031068    0.1300
      5 C5         -2.8187    1.8854   49.5763 C.2     1  ZINC000992031068    0.5700
      6 O6         -2.3210    2.3263   50.5930 O.2     1  ZINC000992031068   -0.5200
      7 N7         -4.1069    2.1543   49.2853 N.am    1  ZINC000992031068   -0.7100
      8 C8         -4.9065    2.9796   50.1940 C.3     1  ZINC000992031068    0.1300
      9 C9         -6.1561    2.2061   50.6192 C.3     1  ZINC000992031068   -0.1200
     10 C10        -6.1265    1.7461   52.0863 C.3     1  ZINC000992031068   -0.1400
     11 C11        -7.6167    2.1202   52.1516 C.3     1  ZINC000992031068    0.1200
     12 N12        -8.0049    2.7675   53.4072 N.am    1  ZINC000992031068   -0.7200
     13 C13        -8.3765    2.0189   54.4645 C.2     1  ZINC000992031068    0.5200
     14 O14        -8.3882    0.8094   54.3770 O.2     1  ZINC000992031068   -0.5200
     15 C15        -8.7775    2.6849   55.7555 C.3     1  ZINC000992031068   -0.0800
     16 C16        -8.3342    1.8347   56.9181 C.2     1  ZINC000992031068    0.1000
     17 C17        -9.0086    0.7847   57.4414 C.2     1  ZINC000992031068   -0.2500
     18 C18        -8.2541    0.2746   58.5030 C.2     1  ZINC000992031068    0.0500
     19 N19        -7.1658    0.9924   58.6130 N.2     1  ZINC000992031068   -0.2900
     20 N20        -7.1908    1.9803   57.6201 N.pl3   1  ZINC000992031068   -0.3700
     21 C21        -6.1620    2.9975   57.3902 C.3     1  ZINC000992031068    0.1000
     22 C22        -7.3375    3.1103   51.0086 C.3     1  ZINC000992031068   -0.1400
     23 N23        -1.0790    0.2249   49.1301 N.ar    1  ZINC000992031068   -0.5000
     24 C24        -0.3587   -0.5171   48.3164 C.ar    1  ZINC000992031068    0.3000
     25 N25        -0.5253   -0.4811   47.0086 N.ar    1  ZINC000992031068   -0.5100
     26 H26        -2.3443   -0.3880   44.6658 H       1  ZINC000992031068    0.0900
     27 H27        -1.9308    1.3431   44.6565 H       1  ZINC000992031068    0.0900
     28 H28        -0.6490    0.1209   44.4789 H       1  ZINC000992031068    0.0900
     29 H29        -2.9529    1.7775   46.8549 H       1  ZINC000992031068    0.1600
     30 H30        -4.5047    1.8013   48.4740 H       1  ZINC000992031068    0.4100
     31 H31        -4.3148    3.2271   51.0754 H       1  ZINC000992031068    0.0700
     32 H32        -5.2025    3.8973   49.6858 H       1  ZINC000992031068    0.0800
     33 H33        -6.4239    1.4158   49.9178 H       1  ZINC000992031068    0.1000
     34 H34        -5.9385    0.6792   52.2057 H       1  ZINC000992031068    0.0800
     35 H35        -5.4932    2.3626   52.7244 H       1  ZINC000992031068    0.0900
     36 H36        -8.2841    1.3051   51.8717 H       1  ZINC000992031068    0.1200
     37 H37        -7.9943    3.7349   53.4776 H       1  ZINC000992031068    0.4000
     38 H38        -8.3047    3.6649   55.8211 H       1  ZINC000992031068    0.1200
     39 H39        -9.8609    2.8016   55.7829 H       1  ZINC000992031068    0.1100
     40 H40        -9.9613    0.4076   57.1001 H       1  ZINC000992031068    0.1500
     41 H41        -8.5236   -0.5663   59.1249 H       1  ZINC000992031068    0.1800
     42 H42        -5.4217    2.6135   56.6883 H       1  ZINC000992031068    0.0800
     43 H43        -6.6236    3.8943   56.9768 H       1  ZINC000992031068    0.0800
     44 H44        -5.6752    3.2418   58.3344 H       1  ZINC000992031068    0.0900
     45 H45        -7.0353    4.0998   51.3521 H       1  ZINC000992031068    0.0900
     46 H46        -8.1271    3.1446   50.2580 H       1  ZINC000992031068    0.0800
     47 H47         0.3878   -1.1777   48.7320 H       1  ZINC000992031068    0.2100
@<TRIPOS>BOND
     1     1     2    1
     2     1    26    1
     3     1    27    1
     4     1    28    1
     5     2    25   ar
     6     2     3   ar
     7     3     4   ar
     8     3    29    1
     9     4     5    1
    10     4    23   ar
    11     5     6    2
    12     5     7   am
    13     7     8    1
    14     7    30    1
    15     8     9    1
    16     8    31    1
    17     8    32    1
    18     9    22    1
    19     9    10    1
    20     9    33    1
    21    10    11    1
    22    10    34    1
    23    10    35    1
    24    11    12    1
    25    11    22    1
    26    11    36    1
    27    12    13   am
    28    12    37    1
    29    13    14    2
    30    13    15    1
    31    15    16    1
    32    15    38    1
    33    15    39    1
    34    16    20    1
    35    16    17    2
    36    17    18    1
    37    17    40    1
    38    18    19    2
    39    18    41    1
    40    19    20    1
    41    20    21    1
    42    21    42    1
    43    21    43    1
    44    21    44    1
    45    22    45    1
    46    22    46    1
    47    23    24   ar
    48    24    25   ar
    49    24    47    1
@<TRIPOS>SUBSTRUCTURE
     1 ZINC000992031068        1 TEMP              0 ****  ****    0 ROOT


##########                                Name:    ZINC000762187039
##########                DOCK_Rotatable_Bonds:                   9
##########                         Heavy_Atoms:                  25
##########                    Molecular_Weight:             354.473
##########                DOCK_Rotatable_Bonds:                   9
##########                       Formal_Charge:        -1.78814e-07
##########                     HBond_Acceptors:                   5
##########                        HBond_Donors:                   1
##########                         Heavy_Atoms:                  25
##########                          Grid_Score:          -35.652424
##########                     Grid_vdw_energy:          -34.694839
##########                      Grid_es_energy:           -0.957583
##########           Internal_energy_repulsive:           10.863125

@<TRIPOS>MOLECULE
ZINC000762187039
 47 49 1 0 0
SMALL
USER_CHARGES


@<TRIPOS>ATOM
      1 C1          2.9374    1.8795   43.8460 C.3     1  ZINC000762187039   -0.0800
      2 C2          1.8945    1.1022   43.0849 C.2     1  ZINC000762187039    0.0500
      3 N3          0.7181    0.8137   43.5294 N.2     1  ZINC000762187039   -0.4700
      4 C4         -0.0734    0.1252   42.7318 C.2     1  ZINC000762187039    0.0700
      5 C5         -1.4717   -0.2795   43.1218 C.3     1  ZINC000762187039   -0.0300
      6 C6         -1.8608    0.4215   44.4248 C.3     1  ZINC000762187039   -0.1300
      7 C7         -1.3609   -0.3832   45.5969 C.2     1  ZINC000762187039    0.5200
      8 O8         -1.9167   -1.4164   45.9042 O.2     1  ZINC000762187039   -0.5400
      9 N9         -0.2963    0.0455   46.3036 N.am    1  ZINC000762187039   -0.7300
     10 C10         0.1886   -0.7359   47.4439 C.3     1  ZINC000762187039    0.1200
     11 C11        -0.6966   -0.4639   48.6619 C.3     1  ZINC000762187039   -0.1300
     12 C12        -0.4131    0.9420   49.1947 C.3     1  ZINC000762187039    0.0600
     13 O13        -1.4280    1.8382   48.7377 O.3     1  ZINC000762187039   -0.3100
     14 C14        -2.1700    2.4658   49.6874 C.ar    1  ZINC000762187039    0.1300
     15 C15        -1.5289    3.1116   50.7487 C.ar    1  ZINC000762187039   -0.1900
     16 C16        -2.2443    3.7484   51.7146 C.ar    1  ZINC000762187039   -0.0600
     17 C17        -3.6482    3.7602   51.6485 C.ar    1  ZINC000762187039   -0.0800
     18 C18        -4.4183    4.4088   52.6289 C.ar    1  ZINC000762187039   -0.0900
     19 C19        -5.7759    4.4008   52.5335 C.ar    1  ZINC000762187039   -0.1300
     20 C20        -6.4175    3.7579   51.4763 C.ar    1  ZINC000762187039   -0.1000
     21 C21        -5.7050    3.1194   50.5085 C.ar    1  ZINC000762187039   -0.1200
     22 C22        -4.3006    3.1063   50.5730 C.ar    1  ZINC000762187039   -0.0100
     23 C23        -3.5326    2.4622   49.5897 C.ar    1  ZINC000762187039   -0.1500
     24 C24         0.4654   -0.1843   41.5486 C.2     1  ZINC000762187039   -0.2600
     25 S25         2.0963    0.4811   41.5048 S.3     1  ZINC000762187039    0.1200
     26 H26         3.8334    1.9814   43.2336 H       1  ZINC000762187039    0.0800
     27 H27         2.5486    2.8686   44.0882 H       1  ZINC000762187039    0.0900
     28 H28         3.1848    1.3509   44.7666 H       1  ZINC000762187039    0.0900
     29 H29        -2.1666    0.0082   42.3329 H       1  ZINC000762187039    0.0900
     30 H30        -1.5109   -1.3595   43.2645 H       1  ZINC000762187039    0.0900
     31 H31        -1.4146    1.4157   44.4499 H       1  ZINC000762187039    0.0900
     32 H32        -2.9459    0.5087   44.4804 H       1  ZINC000762187039    0.1000
     33 H33         0.1489    0.8713   46.0570 H       1  ZINC000762187039    0.4000
     34 H34         0.1527   -1.7973   47.1986 H       1  ZINC000762187039    0.0700
     35 H35         1.2157   -0.4497   47.6701 H       1  ZINC000762187039    0.0700
     36 H36        -1.7449   -0.5385   48.3729 H       1  ZINC000762187039    0.0800
     37 H37        -0.4808   -1.1973   49.4389 H       1  ZINC000762187039    0.0800
     38 H38        -0.4086    0.9235   50.2845 H       1  ZINC000762187039    0.0700
     39 H39         0.5585    1.2785   48.8330 H       1  ZINC000762187039    0.0700
     40 H40        -0.4502    3.1046   50.8026 H       1  ZINC000762187039    0.1300
     41 H41        -1.7356    4.2427   52.5290 H       1  ZINC000762187039    0.1300
     42 H42        -3.9352    4.9109   53.4541 H       1  ZINC000762187039    0.1300
     43 H43        -6.3650    4.8999   53.2887 H       1  ZINC000762187039    0.1200
     44 H44        -7.4962    3.7663   51.4245 H       1  ZINC000762187039    0.1200
     45 H45        -6.2156    2.6255   49.6951 H       1  ZINC000762187039    0.1300
     46 H46        -4.0164    1.9636   48.7628 H       1  ZINC000762187039    0.1300
     47 H47        -0.0153   -0.7406   40.7576 H       1  ZINC000762187039    0.1800
@<TRIPOS>BOND
     1     1     2    1
     2     1    26    1
     3     1    27    1
     4     1    28    1
     5     2    25    1
     6     2     3    2
     7     3     4    1
     8     4     5    1
     9     4    24    2
    10     5     6    1
    11     5    29    1
    12     5    30    1
    13     6     7    1
    14     6    31    1
    15     6    32    1
    16     7     8    2
    17     7     9   am
    18     9    10    1
    19     9    33    1
    20    10    11    1
    21    10    34    1
    22    10    35    1
    23    11    12    1
    24    11    36    1
    25    11    37    1
    26    12    13    1
    27    12    38    1
    28    12    39    1
    29    13    14    1
    30    14    23   ar
    31    14    15   ar
    32    15    16   ar
    33    15    40    1
    34    16    17   ar
    35    16    41    1
    36    17    22   ar
    37    17    18   ar
    38    18    19   ar
    39    18    42    1
    40    19    20   ar
    41    19    43    1
    42    20    21   ar
    43    20    44    1
    44    21    22   ar
    45    21    45    1
    46    22    23   ar
    47    23    46    1
    48    24    25    1
    49    24    47    1
@<TRIPOS>SUBSTRUCTURE
     1 ZINC000762187039        1 TEMP              0 ****  ****    0 ROOT


##########                                Name:    ZINC000373715094
##########                DOCK_Rotatable_Bonds:                   6
##########                         Heavy_Atoms:                  27
##########                    Molecular_Weight:             362.431
##########                DOCK_Rotatable_Bonds:                   6
##########                       Formal_Charge:           0.0299999
##########                     HBond_Acceptors:                   6
##########                        HBond_Donors:                   2
##########                         Heavy_Atoms:                  27
##########                          Grid_Score:          -35.649864
##########                     Grid_vdw_energy:          -35.089363
##########                      Grid_es_energy:           -0.560501
##########           Internal_energy_repulsive:           15.889592

@<TRIPOS>MOLECULE
ZINC000373715094
 49 52 1 0 0
SMALL
USER_CHARGES


@<TRIPOS>ATOM
      1 C1         -0.5716   -1.4360   48.9599 C.3     1  ZINC000373715094    0.0900
      2 N2         -0.8982   -0.0732   48.5325 N.am    1  ZINC000373715094   -0.6100
      3 C3         -1.0323    0.3080   47.2505 C.2     1  ZINC000373715094    0.5200
      4 O4         -0.8943   -0.4208   46.2911 O.2     1  ZINC000373715094   -0.5200
      5 C5         -1.3807    1.7785   47.1787 C.3     1  ZINC000373715094   -0.1600
      6 C6         -1.8448    2.1286   48.6115 C.3     1  ZINC000373715094   -0.1000
      7 H7         -1.5161    3.1285   48.8946 H       1  ZINC000373715094    0.1100
      8 C8         -3.3634    1.9968   48.7428 C.3     1  ZINC000373715094    0.1300
      9 N9         -3.7699    2.3652   50.1012 N.am    1  ZINC000373715094   -0.7300
     10 C10        -5.0658    2.2829   50.4625 C.2     1  ZINC000373715094    0.5200
     11 O11        -5.8951    1.9025   49.6634 O.2     1  ZINC000373715094   -0.5200
     12 C12        -5.4841    2.6636   51.8593 C.3     1  ZINC000373715094   -0.0600
     13 C13        -6.4680    1.6492   52.3830 C.2     1  ZINC000373715094    0.1200
     14 N14        -6.9750    0.6545   51.7124 N.2     1  ZINC000373715094   -0.2300
     15 N15        -7.8506   -0.0751   52.5232 N.pl3   1  ZINC000373715094   -0.5100
     16 C16        -7.8907    0.4974   53.7678 C.ar    1  ZINC000373715094    0.1300
     17 C17        -8.5735    0.2009   54.9445 C.ar    1  ZINC000373715094   -0.1400
     18 C18        -8.3963    0.9847   56.0495 C.ar    1  ZINC000373715094   -0.0700
     19 C19        -7.5411    2.0790   56.0161 C.ar    1  ZINC000373715094   -0.1600
     20 C20        -6.8587    2.3937   54.8767 C.ar    1  ZINC000373715094   -0.0400
     21 C21        -7.0179    1.6024   53.7339 C.ar    1  ZINC000373715094   -0.1600
     22 C22        -1.1272    1.0497   49.4494 C.3     1  ZINC000373715094    0.1800
     23 H23        -1.7567    0.7392   50.2834 H       1  ZINC000373715094    0.1000
     24 C24         0.1901    1.5754   49.9587 C.ar    1  ZINC000373715094   -0.1000
     25 C25         0.2137    2.6116   50.8732 C.ar    1  ZINC000373715094   -0.1000
     26 C26         1.4222    3.0938   51.3403 C.ar    1  ZINC000373715094   -0.1200
     27 C27         2.6069    2.5395   50.8930 C.ar    1  ZINC000373715094   -0.1100
     28 C28         2.5832    1.5026   49.9791 C.ar    1  ZINC000373715094   -0.1200
     29 C29         1.3748    1.0176   49.5153 C.ar    1  ZINC000373715094   -0.1100
     30 H30        -1.4917   -2.0039   49.0974 H       1  ZINC000373715094    0.0600
     31 H31         0.0425   -1.9179   48.1992 H       1  ZINC000373715094    0.0800
     32 H32        -0.0227   -1.3999   49.9009 H       1  ZINC000373715094    0.0700
     33 H33        -0.5033    2.3655   46.9077 H       1  ZINC000373715094    0.1100
     34 H34        -2.1875    1.9449   46.4651 H       1  ZINC000373715094    0.1100
     35 H35        -3.8489    2.6591   48.0260 H       1  ZINC000373715094    0.0700
     36 H36        -3.6574    0.9665   48.5424 H       1  ZINC000373715094    0.0800
     37 H37        -3.1064    2.6682   50.7406 H       1  ZINC000373715094    0.4000
     38 H38        -4.6079    2.6880   52.5071 H       1  ZINC000373715094    0.1200
     39 H39        -5.9515    3.6482   51.8430 H       1  ZINC000373715094    0.1200
     40 H40        -8.3496   -0.8602   52.2486 H       1  ZINC000373715094    0.4400
     41 H41        -9.2419   -0.6466   54.9836 H       1  ZINC000373715094    0.1300
     42 H42        -8.9280    0.7508   56.9600 H       1  ZINC000373715094    0.1300
     43 H43        -7.4153    2.6866   56.9001 H       1  ZINC000373715094    0.1300
     44 H44        -6.1956    3.2460   54.8588 H       1  ZINC000373715094    0.1300
     45 H45        -0.7118    3.0447   51.2226 H       1  ZINC000373715094    0.1200
     46 H46         1.4406    3.9039   52.0544 H       1  ZINC000373715094    0.1200
     47 H47         3.5511    2.9168   51.2574 H       1  ZINC000373715094    0.1200
     48 H48         3.5089    1.0699   49.6295 H       1  ZINC000373715094    0.1300
     49 H49         1.3563    0.2076   48.8013 H       1  ZINC000373715094    0.1300
@<TRIPOS>BOND
     1     1     2    1
     2     1    30    1
     3     1    31    1
     4     1    32    1
     5     2    22    1
     6     2     3   am
     7     3     4    2
     8     3     5    1
     9     5     6    1
    10     5    33    1
    11     5    34    1
    12     6     7    1
    13     6     8    1
    14     6    22    1
    15     8     9    1
    16     8    35    1
    17     8    36    1
    18     9    10   am
    19     9    37    1
    20    10    11    2
    21    10    12    1
    22    12    13    1
    23    12    38    1
    24    12    39    1
    25    13    21    1
    26    13    14    2
    27    14    15    1
    28    15    16    1
    29    15    40    1
    30    16    21   ar
    31    16    17   ar
    32    17    18   ar
    33    17    41    1
    34    18    19   ar
    35    18    42    1
    36    19    20   ar
    37    19    43    1
    38    20    21   ar
    39    20    44    1
    40    22    23    1
    41    22    24    1
    42    24    29   ar
    43    24    25   ar
    44    25    26   ar
    45    25    45    1
    46    26    27   ar
    47    26    46    1
    48    27    28   ar
    49    27    47    1
    50    28    29   ar
    51    28    48    1
    52    29    49    1
@<TRIPOS>SUBSTRUCTURE
     1 ZINC000373715094        1 TEMP              0 ****  ****    0 ROOT


##########                                Name:    ZINC000410354665
##########                DOCK_Rotatable_Bonds:                   7
##########                         Heavy_Atoms:                  29
##########                    Molecular_Weight:             417.889
##########                DOCK_Rotatable_Bonds:                   7
##########                       Formal_Charge:        -3.72529e-08
##########                     HBond_Acceptors:                   7
##########                        HBond_Donors:                   1
##########                         Heavy_Atoms:                  29
##########                          Grid_Score:          -35.649475
##########                     Grid_vdw_energy:          -35.421181
##########                      Grid_es_energy:           -0.228296
##########           Internal_energy_repulsive:           53.665833

@<TRIPOS>MOLECULE
ZINC000410354665
 53 56 1 0 0
SMALL
USER_CHARGES


@<TRIPOS>ATOM
      1 C1         -6.8523   -0.2309   51.2533 C.3     1  ZINC000410354665    0.0200
      2 O2         -7.4070    1.0856   51.2822 O.3     1  ZINC000410354665   -0.3000
      3 C3         -6.5662    2.1162   50.9982 C.ar    1  ZINC000410354665    0.0900
      4 C4         -5.2489    1.8623   50.6703 C.ar    1  ZINC000410354665   -0.1100
      5 C5         -4.3876    2.9239   50.3785 C.ar    1  ZINC000410354665   -0.1400
      6 C6         -2.9789    2.6581   50.0269 C.2     1  ZINC000410354665    0.5700
      7 O7         -2.2273    3.5832   49.7869 O.2     1  ZINC000410354665   -0.5300
      8 N8         -2.5259    1.3900   49.9719 N.am    1  ZINC000410354665   -0.7200
      9 C9         -1.1272    1.1263   49.6247 C.3     1  ZINC000410354665    0.1700
     10 C10        -0.9602    1.1917   48.1283 C.ar    1  ZINC000410354665   -0.1000
     11 C11        -0.4375    2.3288   47.5416 C.ar    1  ZINC000410354665   -0.0900
     12 C12        -0.2850    2.3933   46.1683 C.ar    1  ZINC000410354665   -0.0300
     13 Cl13        0.3714    3.8232   45.4347 Cl      1  ZINC000410354665   -0.0400
     14 C14        -0.6557    1.3156   45.3767 C.ar    1  ZINC000410354665    0.0700
     15 O15        -0.5070    1.3961   44.0259 O.3     1  ZINC000410354665   -0.2900
     16 C16        -0.5409    0.1624   43.3001 C.3     1  ZINC000410354665    0.0200
     17 C17        -1.7294   -0.6633   43.8108 C.3     1  ZINC000410354665    0.0200
     18 O18        -1.5428   -0.8991   45.2106 O.3     1  ZINC000410354665   -0.3000
     19 C19        -1.1775    0.1713   45.9678 C.ar    1  ZINC000410354665    0.0600
     20 C20        -1.3247    0.1123   47.3457 C.ar    1  ZINC000410354665   -0.0900
     21 C21        -4.8630    4.2365   50.4199 C.ar    1  ZINC000410354665   -0.0800
     22 C22        -6.1787    4.4830   50.7484 C.ar    1  ZINC000410354665   -0.1900
     23 C23        -7.0356    3.4288   51.0325 C.ar    1  ZINC000410354665    0.1400
     24 O24        -8.3310    3.6769   51.3556 O.3     1  ZINC000410354665   -0.2900
     25 C25        -8.7361    5.0463   51.4066 C.3     1  ZINC000410354665    0.0700
     26 C26        -8.6553    5.6883   49.9994 C.3     1  ZINC000410354665   -0.1500
     27 C27        -9.6508    6.8702   50.1053 C.3     1  ZINC000410354665   -0.1200
     28 C28       -10.8089    6.3141   50.9593 C.3     1  ZINC000410354665   -0.1200
     29 C29       -10.2272    5.1544   51.7868 C.3     1  ZINC000410354665   -0.1200
     30 H30        -6.4606   -0.4385   50.2576 H       1  ZINC000410354665    0.0600
     31 H31        -6.0457   -0.3015   51.9831 H       1  ZINC000410354665    0.0600
     32 H32        -7.6277   -0.9572   51.4974 H       1  ZINC000410354665    0.1000
     33 H33        -4.8850    0.8460   50.6397 H       1  ZINC000410354665    0.1500
     34 H34        -3.1257    0.6519   50.1622 H       1  ZINC000410354665    0.4000
     35 H35        -0.4888    1.8746   50.0945 H       1  ZINC000410354665    0.0800
     36 H36        -0.8456    0.1346   49.9786 H       1  ZINC000410354665    0.0900
     37 H37        -0.1483    3.1683   48.1563 H       1  ZINC000410354665    0.1500
     38 H38        -0.6643    0.3652   42.2362 H       1  ZINC000410354665    0.1300
     39 H39         0.3861   -0.3866   43.4650 H       1  ZINC000410354665    0.0800
     40 H40        -2.6559   -0.1117   43.6513 H       1  ZINC000410354665    0.0800
     41 H41        -1.7712   -1.6144   43.2801 H       1  ZINC000410354665    0.1300
     42 H42        -1.7281   -0.7768   47.8073 H       1  ZINC000410354665    0.1400
     43 H43        -4.1994    5.0583   50.1949 H       1  ZINC000410354665    0.1300
     44 H44        -6.5448    5.4986   50.7804 H       1  ZINC000410354665    0.1400
     45 H45        -8.1205    5.5991   52.1163 H       1  ZINC000410354665    0.0800
     46 H46        -7.6470    6.0494   49.7969 H       1  ZINC000410354665    0.0700
     47 H47        -8.9747    4.9816   49.2335 H       1  ZINC000410354665    0.0800
     48 H48        -9.1831    7.7195   50.6033 H       1  ZINC000410354665    0.0700
     49 H49       -10.0094    7.1566   49.1165 H       1  ZINC000410354665    0.0700
     50 H50       -11.1907    7.0909   51.6219 H       1  ZINC000410354665    0.0700
     51 H51       -11.6070    5.9482   50.3133 H       1  ZINC000410354665    0.0700
     52 H52       -10.7432    4.2258   51.5424 H       1  ZINC000410354665    0.0800
     53 H53       -10.3269    5.3683   52.8509 H       1  ZINC000410354665    0.0700
@<TRIPOS>BOND
     1     1     2    1
     2     1    30    1
     3     1    31    1
     4     1    32    1
     5     2     3    1
     6     3    23   ar
     7     3     4   ar
     8     4     5   ar
     9     4    33    1
    10     5     6    1
    11     5    21   ar
    12     6     7    2
    13     6     8   am
    14     8     9    1
    15     8    34    1
    16     9    10    1
    17     9    35    1
    18     9    36    1
    19    10    20   ar
    20    10    11   ar
    21    11    12   ar
    22    11    37    1
    23    12    13    1
    24    12    14   ar
    25    14    19   ar
    26    14    15    1
    27    15    16    1
    28    16    17    1
    29    16    38    1
    30    16    39    1
    31    17    18    1
    32    17    40    1
    33    17    41    1
    34    18    19    1
    35    19    20   ar
    36    20    42    1
    37    21    22   ar
    38    21    43    1
    39    22    23   ar
    40    22    44    1
    41    23    24    1
    42    24    25    1
    43    25    29    1
    44    25    26    1
    45    25    45    1
    46    26    27    1
    47    26    46    1
    48    26    47    1
    49    27    28    1
    50    27    48    1
    51    27    49    1
    52    28    29    1
    53    28    50    1
    54    28    51    1
    55    29    52    1
    56    29    53    1
@<TRIPOS>SUBSTRUCTURE
     1 ZINC000410354665        1 TEMP              0 ****  ****    0 ROOT


##########                                Name:    ZINC000489403631
##########                DOCK_Rotatable_Bonds:                   7
##########                         Heavy_Atoms:                  28
##########                    Molecular_Weight:             381.391
##########                DOCK_Rotatable_Bonds:                   7
##########                       Formal_Charge:          -0.0300003
##########                     HBond_Acceptors:                   9
##########                        HBond_Donors:                   1
##########                         Heavy_Atoms:                  28
##########                          Grid_Score:          -35.630196
##########                     Grid_vdw_energy:          -35.206326
##########                      Grid_es_energy:           -0.423869
##########           Internal_energy_repulsive:           12.828260

@<TRIPOS>MOLECULE
ZINC000489403631
 47 49 1 0 0
SMALL
USER_CHARGES


@<TRIPOS>ATOM
      1 C1         -5.1467    4.2462   53.5528 C.3     1  ZINC000489403631   -0.1100
      2 C2         -5.0225    3.7164   52.1475 C.ar    1  ZINC000489403631   -0.0800
      3 C3         -3.7802    3.6212   51.5530 C.ar    1  ZINC000489403631   -0.0900
      4 C4         -3.6659    3.1328   50.2580 C.ar    1  ZINC000489403631    0.1200
      5 N5         -2.4055    3.0357   49.6544 N.am    1  ZINC000489403631   -0.6600
      6 C6         -1.8456    1.8262   49.4542 C.2     1  ZINC000489403631    0.5100
      7 O7         -2.4331    0.8217   49.7966 O.2     1  ZINC000489403631   -0.4600
      8 C8         -0.4896    1.7216   48.8049 C.3     1  ZINC000489403631    0.1700
      9 C9          0.2925    3.0143   49.0465 C.3     1  ZINC000489403631   -0.1700
     10 C10         0.2754    0.5423   49.4087 C.3     1  ZINC000489403631   -0.1700
     11 N11        -0.6529    1.5117   47.3643 N.pl3   1  ZINC000489403631   -0.3400
     12 C12        -1.0348    0.3631   46.7676 C.2     1  ZINC000489403631    0.1500
     13 C13        -1.0638    0.5816   45.4325 C.2     1  ZINC000489403631   -0.1900
     14 N14        -1.4307   -0.4090   44.3957 N.pl3   1  ZINC000489403631    0.0700
     15 O15        -1.7400   -1.5420   44.7183 O.2     1  ZINC000489403631   -0.1700
     16 O16        -1.4231   -0.0911   43.2199 O.2     1  ZINC000489403631   -0.1600
     17 C17        -0.6865    1.9092   45.2054 C.2     1  ZINC000489403631    0.1000
     18 N18        -0.4459    2.4694   46.3631 N.2     1  ZINC000489403631   -0.2200
     19 C19        -4.8013    2.7407   49.5619 C.ar    1  ZINC000489403631   -0.1100
     20 C20        -6.0436    2.8363   50.1576 C.ar    1  ZINC000489403631   -0.1700
     21 C21        -6.1564    3.3188   51.4533 C.ar    1  ZINC000489403631    0.1000
     22 O22        -7.3797    3.4128   52.0393 O.3     1  ZINC000489403631   -0.2500
     23 C23        -8.0420    2.2619   52.3194 C.ar    1  ZINC000489403631    0.1400
     24 C24        -9.3993    2.2769   52.6324 C.ar    1  ZINC000489403631   -0.2000
     25 C25       -10.0366    1.0855   52.9111 C.ar    1  ZINC000489403631    0.1200
     26 N26        -9.3767   -0.0571   52.8837 N.ar    1  ZINC000489403631   -0.4900
     27 C27        -8.0909   -0.1122   52.5916 C.ar    1  ZINC000489403631    0.1200
     28 C28        -7.3834    1.0347   52.2955 C.ar    1  ZINC000489403631   -0.1800
     29 H29        -5.0683    3.4209   54.2605 H       1  ZINC000489403631    0.0700
     30 H30        -4.3487    4.9642   53.7422 H       1  ZINC000489403631    0.0700
     31 H31        -6.1127    4.7367   53.6722 H       1  ZINC000489403631    0.0700
     32 H32        -2.8973    3.9268   52.0949 H       1  ZINC000489403631    0.1500
     33 H33        -1.9357    3.8389   49.3806 H       1  ZINC000489403631    0.4100
     34 H34         0.4139    3.1705   50.1184 H       1  ZINC000489403631    0.1000
     35 H35         1.2732    2.9387   48.5769 H       1  ZINC000489403631    0.0900
     36 H36        -0.2526    3.8545   48.6163 H       1  ZINC000489403631    0.0800
     37 H37        -0.2818   -0.3786   49.2367 H       1  ZINC000489403631    0.0800
     38 H38         1.2561    0.4667   48.9391 H       1  ZINC000489403631    0.0900
     39 H39         0.3968    0.6985   50.4806 H       1  ZINC000489403631    0.0900
     40 H40        -1.2742   -0.5645   47.2663 H       1  ZINC000489403631    0.2000
     41 H41        -0.6117    2.3902   44.2415 H       1  ZINC000489403631    0.2100
     42 H42        -4.7132    2.3612   48.5546 H       1  ZINC000489403631    0.1300
     43 H43        -6.9269    2.5312   49.6163 H       1  ZINC000489403631    0.1300
     44 H44        -9.9451    3.2085   52.6569 H       1  ZINC000489403631    0.1400
     45 H45       -11.0887    1.0878   53.1552 H       1  ZINC000489403631    0.1600
     46 H46        -7.5871   -1.0674   52.5803 H       1  ZINC000489403631    0.1700
     47 H47        -6.3314    0.9827   52.0570 H       1  ZINC000489403631    0.1500
@<TRIPOS>BOND
     1     1     2    1
     2     1    29    1
     3     1    30    1
     4     1    31    1
     5     2    21   ar
     6     2     3   ar
     7     3     4   ar
     8     3    32    1
     9     4     5    1
    10     4    19   ar
    11     5     6   am
    12     5    33    1
    13     6     7    2
    14     6     8    1
    15     8     9    1
    16     8    10    1
    17     8    11    1
    18     9    34    1
    19     9    35    1
    20     9    36    1
    21    10    37    1
    22    10    38    1
    23    10    39    1
    24    11    18    1
    25    11    12    1
    26    12    13    2
    27    12    40    1
    28    13    14    1
    29    13    17    1
    30    14    15    2
    31    14    16    2
    32    17    18    2
    33    17    41    1
    34    19    20   ar
    35    19    42    1
    36    20    21   ar
    37    20    43    1
    38    21    22    1
    39    22    23    1
    40    23    28   ar
    41    23    24   ar
    42    24    25   ar
    43    24    44    1
    44    25    26   ar
    45    25    45    1
    46    26    27   ar
    47    27    28   ar
    48    27    46    1
    49    28    47    1
@<TRIPOS>SUBSTRUCTURE
     1 ZINC000489403631        1 TEMP              0 ****  ****    0 ROOT


##########                                Name:    ZINC000175255939
##########                DOCK_Rotatable_Bonds:                   8
##########                         Heavy_Atoms:                  28
##########                    Molecular_Weight:             394.375
##########                DOCK_Rotatable_Bonds:                   8
##########                       Formal_Charge:          -0.0399999
##########                     HBond_Acceptors:                   9
##########                        HBond_Donors:                   1
##########                         Heavy_Atoms:                  28
##########                          Grid_Score:          -35.617939
##########                     Grid_vdw_energy:          -34.093307
##########                      Grid_es_energy:           -1.524633
##########           Internal_energy_repulsive:           10.884008

@<TRIPOS>MOLECULE
ZINC000175255939
 48 50 1 0 0
SMALL
USER_CHARGES


@<TRIPOS>ATOM
      1 C1        -10.7586   -0.4456   52.9395 C.3     1  ZINC000175255939    0.0300
      2 O2         -9.9222    0.6798   52.5623 O.3     1  ZINC000175255939   -0.3600
      3 C3         -8.8243    0.8984   53.3031 C.2     1  ZINC000175255939    0.4600
      4 O4         -8.5933    0.2000   54.2616 O.2     1  ZINC000175255939   -0.5000
      5 C5         -7.8797    2.0147   52.9390 C.3     1  ZINC000175255939   -0.0800
      6 H6         -8.4356    2.8176   52.4548 H       1  ZINC000175255939    0.1100
      7 C7         -7.2103    2.5501   54.2064 C.3     1  ZINC000175255939   -0.1200
      8 C8         -6.2514    3.6835   53.8367 C.3     1  ZINC000175255939   -0.1100
      9 C9         -5.1815    3.1546   52.8794 C.3     1  ZINC000175255939   -0.1200
     10 C10        -5.8509    2.6192   51.6121 C.3     1  ZINC000175255939   -0.1000
     11 H11        -6.4067    3.4221   51.1278 H       1  ZINC000175255939    0.1100
     12 C12        -4.7970    2.0982   50.6692 C.2     1  ZINC000175255939    0.5100
     13 O13        -5.0583    1.1889   49.9104 O.2     1  ZINC000175255939   -0.4800
     14 N14        -3.5642    2.6427   50.6692 N.am    1  ZINC000175255939   -0.6300
     15 C15        -2.5933    2.1618   49.8021 C.2     1  ZINC000175255939    0.2100
     16 C16        -2.6828    2.0749   48.4449 C.2     1  ZINC000175255939   -0.2600
     17 C17        -1.4344    1.5230   48.0563 C.2     1  ZINC000175255939    0.0900
     18 C18        -0.9891    1.2126   46.6753 C.ar    1  ZINC000175255939   -0.0500
     19 C19         0.3246    0.8119   46.4388 C.ar    1  ZINC000175255939   -0.0600
     20 C20         0.7357    0.5241   45.1546 C.ar    1  ZINC000175255939   -0.1300
     21 C21        -0.1577    0.6336   44.0973 C.ar    1  ZINC000175255939    0.1200
     22 O22         0.2500    0.3493   42.8330 O.3     1  ZINC000175255939   -0.3200
     23 C23        -0.6617   -0.3751   42.0048 C.3     1  ZINC000175255939    0.4100
     24 F24         0.0237   -0.8968   40.9023 F       1  ZINC000175255939   -0.2000
     25 F25        -1.2283   -1.4220   42.7397 F       1  ZINC000175255939   -0.2000
     26 C26        -1.4672    1.0324   44.3299 C.ar    1  ZINC000175255939   -0.1900
     27 C27        -1.8855    1.3155   45.6130 C.ar    1  ZINC000175255939   -0.0500
     28 N28        -0.7529    1.3421   49.1624 N.2     1  ZINC000175255939   -0.3600
     29 O29        -1.3786    1.6961   50.1343 O.3     1  ZINC000175255939    0.1200
     30 C30        -6.8098    1.4858   51.9817 C.3     1  ZINC000175255939   -0.0900
     31 H31       -11.6097   -0.5092   52.2615 H       1  ZINC000175255939    0.1000
     32 H32       -10.1775   -1.3660   52.8806 H       1  ZINC000175255939    0.0600
     33 H33       -11.1164   -0.3066   53.9597 H       1  ZINC000175255939    0.0600
     34 H34        -7.9726    2.9270   54.8883 H       1  ZINC000175255939    0.0800
     35 H35        -6.6545    1.7472   54.6905 H       1  ZINC000175255939    0.0700
     36 H36        -6.8073    4.4865   53.3526 H       1  ZINC000175255939    0.0700
     37 H37        -5.7746    4.0650   54.7396 H       1  ZINC000175255939    0.0800
     38 H38        -4.4983    3.9620   52.6161 H       1  ZINC000175255939    0.0700
     39 H39        -4.6256    2.3518   53.3637 H       1  ZINC000175255939    0.0800
     40 H40        -3.3556    3.3708   51.2752 H       1  ZINC000175255939    0.4300
     41 H41        -3.5108    2.3594   47.8125 H       1  ZINC000175255939    0.1800
     42 H42         1.0202    0.7274   47.2607 H       1  ZINC000175255939    0.1400
     43 H43         1.7537    0.2137   44.9707 H       1  ZINC000175255939    0.1400
     44 H44        -1.4494    0.2944   41.6593 H       1  ZINC000175255939    0.1900
     45 H45        -2.1600    1.1167   43.5057 H       1  ZINC000175255939    0.1400
     46 H46        -2.9042    1.6254   45.7933 H       1  ZINC000175255939    0.1400
     47 H47        -6.2539    0.6829   52.4659 H       1  ZINC000175255939    0.0900
     48 H48        -7.2867    1.1043   51.0788 H       1  ZINC000175255939    0.0800
@<TRIPOS>BOND
     1     1     2    1
     2     1    31    1
     3     1    32    1
     4     1    33    1
     5     2     3    1
     6     3     4    2
     7     3     5    1
     8     5     6    1
     9     5    30    1
    10     5     7    1
    11     7     8    1
    12     7    34    1
    13     7    35    1
    14     8     9    1
    15     8    36    1
    16     8    37    1
    17     9    10    1
    18     9    38    1
    19     9    39    1
    20    10    11    1
    21    10    12    1
    22    10    30    1
    23    12    13    2
    24    12    14   am
    25    14    15    1
    26    14    40    1
    27    15    29    1
    28    15    16    2
    29    16    17    1
    30    16    41    1
    31    17    18    1
    32    17    28    2
    33    18    27   ar
    34    18    19   ar
    35    19    20   ar
    36    19    42    1
    37    20    21   ar
    38    20    43    1
    39    21    22    1
    40    21    26   ar
    41    22    23    1
    42    23    24    1
    43    23    25    1
    44    23    44    1
    45    26    27   ar
    46    26    45    1
    47    27    46    1
    48    28    29    1
    49    30    47    1
    50    30    48    1
@<TRIPOS>SUBSTRUCTURE
     1 ZINC000175255939        1 TEMP              0 ****  ****    0 ROOT


##########                                Name:    ZINC000949401225
##########                DOCK_Rotatable_Bonds:                   7
##########                         Heavy_Atoms:                  24
##########                    Molecular_Weight:             332.403
##########                DOCK_Rotatable_Bonds:                   7
##########                       Formal_Charge:                0.03
##########                     HBond_Acceptors:                   7
##########                        HBond_Donors:                   1
##########                         Heavy_Atoms:                  24
##########                          Grid_Score:          -35.612694
##########                     Grid_vdw_energy:          -34.687553
##########                      Grid_es_energy:           -0.925138
##########           Internal_energy_repulsive:           12.955981

@<TRIPOS>MOLECULE
ZINC000949401225
 48 50 1 0 0
SMALL
USER_CHARGES


@<TRIPOS>ATOM
      1 C1        -11.1330    0.5749   53.5305 C.3     1  ZINC000949401225    0.0700
      2 N2        -10.0108    1.3094   52.9411 N.pl3   1  ZINC000949401225   -0.4500
      3 C3         -9.9034    2.6691   52.9019 C.2     1  ZINC000949401225   -0.0100
      4 C4         -8.7510    2.9968   52.2910 C.2     1  ZINC000949401225   -0.1700
      5 C5         -8.1025    1.7321   51.9280 C.2     1  ZINC000949401225   -0.2400
      6 C6         -6.8127    1.5651   51.2372 C.2     1  ZINC000949401225    0.5900
      7 O7         -6.4088    0.4508   50.9643 O.2     1  ZINC000949401225   -0.5500
      8 N8         -6.0799    2.6471   50.9075 N.am    1  ZINC000949401225   -0.7300
      9 C9         -4.7959    2.4809   50.2219 C.3     1  ZINC000949401225    0.1200
     10 C10        -3.8388    3.5932   50.6549 C.3     1  ZINC000949401225    0.1200
     11 H11        -4.0057    4.5260   50.1162 H       1  ZINC000949401225    0.1000
     12 C12        -3.7586    3.7725   52.1773 C.3     1  ZINC000949401225   -0.1500
     13 C13        -2.2664    3.9933   51.8932 C.3     1  ZINC000949401225    0.1000
     14 N14        -2.4288    3.1758   50.6802 N.am    1  ZINC000949401225   -0.6400
     15 C15        -1.6352    2.3894   49.9264 C.2     1  ZINC000949401225    0.5500
     16 O16        -0.4692    2.2404   50.2252 O.2     1  ZINC000949401225   -0.5200
     17 C17        -2.1966    1.6953   48.7124 C.3     1  ZINC000949401225   -0.1400
     18 C18        -1.1105    0.8278   48.0731 C.3     1  ZINC000949401225    0.1500
     19 H19        -0.1772    1.3861   47.9994 H       1  ZINC000949401225    0.0900
     20 C20        -0.8992   -0.4598   48.9001 C.3     1  ZINC000949401225   -0.1200
     21 C21        -0.5987   -1.4987   47.7949 C.3     1  ZINC000949401225   -0.1600
     22 C22        -1.2590   -0.9276   46.5594 C.2     1  ZINC000949401225    0.5200
     23 O23        -1.5006   -1.5530   45.5489 O.2     1  ZINC000949401225   -0.5300
     24 N24        -1.5383    0.3758   46.7439 N.am    1  ZINC000949401225   -0.6200
     25 C25        -2.1879    1.2311   45.7475 C.3     1  ZINC000949401225    0.0900
     26 C26        -8.9350    0.7391   52.3658 C.2     1  ZINC000949401225    0.0800
     27 H27       -10.9298    0.3855   54.5844 H       1  ZINC000949401225    0.0800
     28 H28       -12.0437    1.1665   53.4367 H       1  ZINC000949401225    0.0900
     29 H29       -11.2605   -0.3736   53.0087 H       1  ZINC000949401225    0.0900
     30 H30       -10.6259    3.3680   53.2969 H       1  ZINC000949401225    0.1700
     31 H31        -8.3775    3.9928   52.1045 H       1  ZINC000949401225    0.1500
     32 H32        -6.4025    3.5357   51.1242 H       1  ZINC000949401225    0.4000
     33 H33        -4.3683    1.5123   50.4810 H       1  ZINC000949401225    0.0700
     34 H34        -4.9501    2.5333   49.1441 H       1  ZINC000949401225    0.0900
     35 H35        -4.2777    4.6549   52.5513 H       1  ZINC000949401225    0.1000
     36 H36        -3.9764    2.8684   52.7457 H       1  ZINC000949401225    0.1000
     37 H37        -2.0135    5.0328   51.6842 H       1  ZINC000949401225    0.0900
     38 H38        -1.6112    3.5410   52.6378 H       1  ZINC000949401225    0.0800
     39 H39        -3.0361    1.0666   49.0090 H       1  ZINC000949401225    0.1000
     40 H40        -2.5368    2.4401   47.9929 H       1  ZINC000949401225    0.1000
     41 H41        -0.0514   -0.3540   49.5769 H       1  ZINC000949401225    0.1000
     42 H42        -1.8034   -0.7240   49.4484 H       1  ZINC000949401225    0.0800
     43 H43         0.4765   -1.5941   47.6433 H       1  ZINC000949401225    0.1100
     44 H44        -1.0361   -2.4640   48.0496 H       1  ZINC000949401225    0.1000
     45 H45        -2.4783    0.6295   44.8862 H       1  ZINC000949401225    0.0800
     46 H46        -3.0742    1.6904   46.1854 H       1  ZINC000949401225    0.0600
     47 H47        -1.4945    2.0097   45.4296 H       1  ZINC000949401225    0.0600
     48 H48        -8.7622   -0.3219   52.2620 H       1  ZINC000949401225    0.1800
@<TRIPOS>BOND
     1     1     2    1
     2     1    27    1
     3     1    28    1
     4     1    29    1
     5     2    26    1
     6     2     3    1
     7     3     4    2
     8     3    30    1
     9     4     5    1
    10     4    31    1
    11     5     6    1
    12     5    26    2
    13     6     7    2
    14     6     8   am
    15     8     9    1
    16     8    32    1
    17     9    10    1
    18     9    33    1
    19     9    34    1
    20    10    11    1
    21    10    14    1
    22    10    12    1
    23    12    13    1
    24    12    35    1
    25    12    36    1
    26    13    14    1
    27    13    37    1
    28    13    38    1
    29    14    15   am
    30    15    16    2
    31    15    17    1
    32    17    18    1
    33    17    39    1
    34    17    40    1
    35    18    19    1
    36    18    24    1
    37    18    20    1
    38    20    21    1
    39    20    41    1
    40    20    42    1
    41    21    22    1
    42    21    43    1
    43    21    44    1
    44    22    23    2
    45    22    24   am
    46    24    25    1
    47    25    45    1
    48    25    46    1
    49    25    47    1
    50    26    48    1
@<TRIPOS>SUBSTRUCTURE
     1 ZINC000949401225        1 TEMP              0 ****  ****    0 ROOT


##########                                Name:    ZINC001009116151
##########                DOCK_Rotatable_Bonds:                   6
##########                         Heavy_Atoms:                  25
##########                    Molecular_Weight:             342.481
##########                DOCK_Rotatable_Bonds:                   6
##########                       Formal_Charge:           0.0600006
##########                     HBond_Acceptors:                   4
##########                        HBond_Donors:                   1
##########                         Heavy_Atoms:                  25
##########                          Grid_Score:          -35.604435
##########                     Grid_vdw_energy:          -34.106472
##########                      Grid_es_energy:           -1.497964
##########           Internal_energy_repulsive:            9.776658

@<TRIPOS>MOLECULE
ZINC001009116151
 55 59 1 0 0
SMALL
USER_CHARGES


@<TRIPOS>ATOM
      1 O1         -3.2926    2.0549   47.4502 O.2     1  ZINC001009116151   -0.5400
      2 C2         -2.6483    1.7677   48.4368 C.2     1  ZINC001009116151    0.5200
      3 N3         -3.1900    1.9157   49.6620 N.am    1  ZINC001009116151   -0.7300
      4 C4         -4.5548    2.4293   49.8024 C.3     1  ZINC001009116151    0.1500
      5 C5         -5.2375    1.7458   50.9888 C.3     1  ZINC001009116151   -0.1200
      6 H6         -4.5844    1.4916   51.8236 H       1  ZINC001009116151    0.1100
      7 C7         -6.3947    0.7927   50.6832 C.3     1  ZINC001009116151   -0.1700
      8 H8         -6.6531    0.5762   49.6467 H       1  ZINC001009116151    0.1200
      9 C9         -6.7734   -0.2576   51.7496 C.3     1  ZINC001009116151    0.1300
     10 N10        -7.7333    0.4399   52.6367 N.am    1  ZINC001009116151   -0.6200
     11 C11        -8.8518   -0.0591   53.1993 C.2     1  ZINC001009116151    0.5500
     12 O12        -9.1696   -1.2120   52.9979 O.2     1  ZINC001009116151   -0.5300
     13 C13        -9.7075    0.8158   54.0788 C.3     1  ZINC001009116151   -0.1200
     14 C14       -10.9119    1.3841   53.2930 C.3     1  ZINC001009116151   -0.0900
     15 C15       -12.0342    0.4053   53.5493 C.2     1  ZINC001009116151   -0.1800
     16 C16       -11.7657   -0.3602   54.5719 C.2     1  ZINC001009116151   -0.1500
     17 C17       -10.4197   -0.0196   55.1680 C.3     1  ZINC001009116151   -0.0900
     18 C18        -7.1848    1.8100   52.7651 C.3     1  ZINC001009116151    0.1200
     19 C19        -6.6702    2.1700   51.3181 C.3     1  ZINC001009116151   -0.1600
     20 H20        -7.1669    2.9863   50.7938 H       1  ZINC001009116151    0.1300
     21 C21        -1.2443    1.2394   48.2925 C.3     1  ZINC001009116151   -0.0700
     22 C22        -0.6196    1.7949   47.0111 C.3     1  ZINC001009116151   -0.1100
     23 C23         0.8058    1.2585   46.8646 C.3     1  ZINC001009116151   -0.1100
     24 C24         1.1313    0.3455   48.0483 C.3     1  ZINC001009116151   -0.0900
     25 C25         1.0164    1.1391   49.3512 C.3     1  ZINC001009116151   -0.1100
     26 C26        -0.4089    1.6755   49.4978 C.3     1  ZINC001009116151   -0.0900
     27 C27         0.1462   -0.8249   48.0756 C.3     1  ZINC001009116151   -0.1100
     28 C28        -1.2792   -0.2885   48.2221 C.3     1  ZINC001009116151   -0.1000
     29 H29        -2.6762    1.6823   50.4509 H       1  ZINC001009116151    0.4000
     30 H30        -4.5224    3.5054   49.9724 H       1  ZINC001009116151    0.0800
     31 H31        -5.1164    2.2222   48.8914 H       1  ZINC001009116151    0.0700
     32 H32        -7.2466   -1.1209   51.2816 H       1  ZINC001009116151    0.0900
     33 H33        -5.8910   -0.5646   52.3110 H       1  ZINC001009116151    0.0800
     34 H34        -9.1168    1.6165   54.5238 H       1  ZINC001009116151    0.1100
     35 H35       -11.1773    2.3727   53.6675 H       1  ZINC001009116151    0.0900
     36 H36       -10.6833    1.4292   52.2281 H       1  ZINC001009116151    0.0800
     37 H37       -12.9396    0.3470   52.9636 H       1  ZINC001009116151    0.1300
     38 H38       -12.4199   -1.1350   54.9434 H       1  ZINC001009116151    0.1300
     39 H39        -9.8564   -0.9288   55.3780 H       1  ZINC001009116151    0.0900
     40 H40       -10.5448    0.5690   56.0768 H       1  ZINC001009116151    0.0900
     41 H41        -7.9683    2.5066   53.0634 H       1  ZINC001009116151    0.0900
     42 H42        -6.3666    1.8259   53.4851 H       1  ZINC001009116151    0.0800
     43 H43        -1.2148    1.4841   46.1524 H       1  ZINC001009116151    0.0700
     44 H44        -0.5949    2.8834   47.0612 H       1  ZINC001009116151    0.0700
     45 H45         0.8876    0.6930   45.9363 H       1  ZINC001009116151    0.0700
     46 H46         1.5076    2.0923   46.8451 H       1  ZINC001009116151    0.0700
     47 H47         2.1468   -0.0367   47.9439 H       1  ZINC001009116151    0.0700
     48 H48         1.2484    0.4886   50.1946 H       1  ZINC001009116151    0.0700
     49 H49         1.7182    1.9730   49.3319 H       1  ZINC001009116151    0.0700
     50 H50        -0.3841    2.7641   49.5479 H       1  ZINC001009116151    0.0700
     51 H51        -0.8541    1.2798   50.4107 H       1  ZINC001009116151    0.0700
     52 H52         0.2280   -1.3904   47.1473 H       1  ZINC001009116151    0.0700
     53 H53         0.3781   -1.4754   48.9189 H       1  ZINC001009116151    0.0700
     54 H54        -1.7242   -0.6843   49.1350 H       1  ZINC001009116151    0.0700
     55 H55        -1.8744   -0.5993   47.3634 H       1  ZINC001009116151    0.0700
@<TRIPOS>BOND
     1     1     2    2
     2     2     3   am
     3     2    21    1
     4     3     4    1
     5     3    29    1
     6     4     5    1
     7     4    30    1
     8     4    31    1
     9     5     6    1
    10     5    19    1
    11     5     7    1
    12     7     8    1
    13     7    19    1
    14     7     9    1
    15     9    10    1
    16     9    32    1
    17     9    33    1
    18    10    11   am
    19    10    18    1
    20    11    12    2
    21    11    13    1
    22    13    17    1
    23    13    14    1
    24    13    34    1
    25    14    15    1
    26    14    35    1
    27    14    36    1
    28    15    16    2
    29    15    37    1
    30    16    17    1
    31    16    38    1
    32    17    39    1
    33    17    40    1
    34    18    19    1
    35    18    41    1
    36    18    42    1
    37    19    20    1
    38    21    26    1
    39    21    28    1
    40    21    22    1
    41    22    23    1
    42    22    43    1
    43    22    44    1
    44    23    24    1
    45    23    45    1
    46    23    46    1
    47    24    25    1
    48    24    27    1
    49    24    47    1
    50    25    26    1
    51    25    48    1
    52    25    49    1
    53    26    50    1
    54    26    51    1
    55    27    28    1
    56    27    52    1
    57    27    53    1
    58    28    54    1
    59    28    55    1
@<TRIPOS>SUBSTRUCTURE
     1 ZINC001009116151        1 TEMP              0 ****  ****    0 ROOT


##########                                Name:    ZINC000505965769
##########                DOCK_Rotatable_Bonds:                   9
##########                         Heavy_Atoms:                  29
##########                    Molecular_Weight:              419.88
##########                DOCK_Rotatable_Bonds:                   9
##########                       Formal_Charge:               -0.02
##########                     HBond_Acceptors:                   7
##########                        HBond_Donors:                   1
##########                         Heavy_Atoms:                  29
##########                          Grid_Score:          -35.601898
##########                     Grid_vdw_energy:          -34.421600
##########                      Grid_es_energy:           -1.180296
##########           Internal_energy_repulsive:           20.933380

@<TRIPOS>MOLECULE
ZINC000505965769
 52 54 1 0 0
SMALL
USER_CHARGES


@<TRIPOS>ATOM
      1 C1        -10.4193   -1.2065   53.0875 C.3     1  ZINC000505965769    0.0200
      2 O2         -9.1448   -0.9770   53.6920 O.3     1  ZINC000505965769   -0.3100
      3 C3         -8.4138    0.0604   53.2126 C.ar    1  ZINC000505965769    0.1800
      4 C4         -7.5670   -0.1324   52.1261 C.ar    1  ZINC000505965769   -0.2200
      5 C5         -6.8275    0.9061   51.6364 C.ar    1  ZINC000505965769   -0.0200
      6 C6         -6.9195    2.1720   52.2282 C.ar    1  ZINC000505965769   -0.2100
      7 C7         -6.1263    3.2898   51.7035 C.2     1  ZINC000505965769    0.3900
      8 O8         -6.5968    4.0245   50.8606 O.2     1  ZINC000505965769   -0.4400
      9 C9         -4.7272    3.5250   52.2118 C.3     1  ZINC000505965769   -0.1500
     10 C10        -3.8455    4.0253   51.0659 C.3     1  ZINC000505965769   -0.1300
     11 C11        -3.5047    2.8742   50.1549 C.2     1  ZINC000505965769    0.5200
     12 O12        -4.1044    1.8246   50.2537 O.2     1  ZINC000505965769   -0.5300
     13 N13        -2.5336    3.0111   49.2304 N.am    1  ZINC000505965769   -0.7200
     14 C14        -2.2011    1.8915   48.3461 C.3     1  ZINC000505965769    0.1900
     15 H15        -3.1095    1.5221   47.8702 H       1  ZINC000505965769    0.1100
     16 C16        -1.2336    2.3570   47.2885 C.ar    1  ZINC000505965769   -0.1000
     17 C17        -1.4055    1.9642   45.9742 C.ar    1  ZINC000505965769   -0.0900
     18 C18        -0.5190    2.3905   45.0035 C.ar    1  ZINC000505965769   -0.1500
     19 C19         0.5414    3.2116   45.3476 C.ar    1  ZINC000505965769    0.1000
     20 F20         1.4084    3.6292   44.3994 F       1  ZINC000505965769   -0.1400
     21 C21         0.7123    3.6048   46.6643 C.ar    1  ZINC000505965769   -0.1500
     22 C22        -0.1784    3.1812   47.6324 C.ar    1  ZINC000505965769   -0.0600
     23 C23        -1.5608    0.7683   49.1641 C.3     1  ZINC000505965769    0.0800
     24 H24        -2.2871    0.3451   49.8581 H       1  ZINC000505965769    0.0700
     25 C25        -1.0091   -0.3338   48.2249 C.3     1  ZINC000505965769   -0.1500
     26 C26         0.0911   -0.9627   49.1227 C.3     1  ZINC000505965769   -0.1600
     27 C27         0.6074    0.2592   49.9125 C.3     1  ZINC000505965769    0.0500
     28 O28        -0.4169    1.2619   49.8791 O.3     1  ZINC000505965769   -0.3700
     29 C29        -7.7728    2.3676   53.3235 C.ar    1  ZINC000505965769    0.0500
     30 Cl30       -7.8948    3.9325   54.0649 Cl      1  ZINC000505965769   -0.0200
     31 C31        -8.5181    1.3136   53.8057 C.ar    1  ZINC000505965769   -0.1600
     32 H32       -10.2862   -1.4086   52.0247 H       1  ZINC000505965769    0.0600
     33 H33       -10.8979   -2.0627   53.5629 H       1  ZINC000505965769    0.1100
     34 H34       -11.0457   -0.3236   53.2140 H       1  ZINC000505965769    0.0600
     35 H35        -7.4938   -1.1077   51.6679 H       1  ZINC000505965769    0.1400
     36 H36        -6.1712    0.7510   50.7928 H       1  ZINC000505965769    0.1500
     37 H37        -4.7498    4.2718   53.0055 H       1  ZINC000505965769    0.1100
     38 H38        -4.3209    2.5920   52.6023 H       1  ZINC000505965769    0.1100
     39 H39        -4.3813    4.7888   50.5018 H       1  ZINC000505965769    0.1000
     40 H40        -2.9281    4.4509   51.4724 H       1  ZINC000505965769    0.1000
     41 H41        -2.0549    3.8510   49.1507 H       1  ZINC000505965769    0.4000
     42 H42        -2.2327    1.3237   45.7060 H       1  ZINC000505965769    0.1300
     43 H43        -0.6530    2.0829   43.9769 H       1  ZINC000505965769    0.1400
     44 H44         1.5392    4.2450   46.9338 H       1  ZINC000505965769    0.1400
     45 H45        -0.0455    3.4880   48.6594 H       1  ZINC000505965769    0.1400
     46 H46        -1.7808   -1.0635   47.9797 H       1  ZINC000505965769    0.0700
     47 H47        -0.5792    0.0991   47.3216 H       1  ZINC000505965769    0.1000
     48 H48        -0.3355   -1.7071   49.7950 H       1  ZINC000505965769    0.0700
     49 H49         0.8859   -1.3964   48.5159 H       1  ZINC000505965769    0.0800
     50 H50         0.8099   -0.0265   50.9448 H       1  ZINC000505965769    0.0700
     51 H51         1.5164    0.6421   49.4485 H       1  ZINC000505965769    0.0700
     52 H52        -9.1770    1.4590   54.6489 H       1  ZINC000505965769    0.1500
@<TRIPOS>BOND
     1     1     2    1
     2     1    32    1
     3     1    33    1
     4     1    34    1
     5     2     3    1
     6     3    31   ar
     7     3     4   ar
     8     4     5   ar
     9     4    35    1
    10     5     6   ar
    11     5    36    1
    12     6     7    1
    13     6    29   ar
    14     7     8    2
    15     7     9    1
    16     9    10    1
    17     9    37    1
    18     9    38    1
    19    10    11    1
    20    10    39    1
    21    10    40    1
    22    11    12    2
    23    11    13   am
    24    13    14    1
    25    13    41    1
    26    14    15    1
    27    14    16    1
    28    14    23    1
    29    16    22   ar
    30    16    17   ar
    31    17    18   ar
    32    17    42    1
    33    18    19   ar
    34    18    43    1
    35    19    20    1
    36    19    21   ar
    37    21    22   ar
    38    21    44    1
    39    22    45    1
    40    23    24    1
    41    23    28    1
    42    23    25    1
    43    25    26    1
    44    25    46    1
    45    25    47    1
    46    26    27    1
    47    26    48    1
    48    26    49    1
    49    27    28    1
    50    27    50    1
    51    27    51    1
    52    29    30    1
    53    29    31   ar
    54    31    52    1
@<TRIPOS>SUBSTRUCTURE
     1 ZINC000505965769        1 TEMP              0 ****  ****    0 ROOT


##########                                Name:    ZINC000502834785
##########                DOCK_Rotatable_Bonds:                   9
##########                         Heavy_Atoms:                  26
##########                    Molecular_Weight:             356.468
##########                DOCK_Rotatable_Bonds:                   9
##########                       Formal_Charge:           0.0199998
##########                     HBond_Acceptors:                   6
##########                        HBond_Donors:                   2
##########                         Heavy_Atoms:                  26
##########                          Grid_Score:          -35.569466
##########                     Grid_vdw_energy:          -34.320442
##########                      Grid_es_energy:           -1.249023
##########           Internal_energy_repulsive:           19.743271

@<TRIPOS>MOLECULE
ZINC000502834785
 54 56 1 0 0
SMALL
USER_CHARGES


@<TRIPOS>ATOM
      1 C1         -2.4552    3.3741   50.0009 C.3     1  ZINC000502834785   -0.1800
      2 C2         -3.1012    2.1308   49.3863 C.3     1  ZINC000502834785    0.0800
      3 C3         -2.0342    1.0558   49.1698 C.3     1  ZINC000502834785   -0.1500
      4 O4         -4.1082    1.6316   50.2688 O.3     1  ZINC000502834785   -0.3800
      5 C5         -5.3378    2.3578   50.2178 C.3     1  ZINC000502834785    0.1000
      6 C6         -6.3770    1.6449   51.0440 C.ar    1  ZINC000502834785   -0.0800
      7 C7         -6.4227    0.2633   51.0550 C.ar    1  ZINC000502834785   -0.1000
      8 C8         -7.3760   -0.3907   51.8130 C.ar    1  ZINC000502834785   -0.1000
      9 C9         -8.2832    0.3369   52.5603 C.ar    1  ZINC000502834785   -0.1000
     10 C10        -9.3228   -0.3761   53.3862 C.3     1  ZINC000502834785    0.1600
     11 N11        -8.9526   -0.3079   54.8020 N.am    1  ZINC000502834785   -0.7300
     12 C12        -9.9104   -0.2075   55.7448 C.2     1  ZINC000502834785    0.5100
     13 O13       -11.0788   -0.1751   55.4213 O.2     1  ZINC000502834785   -0.5200
     14 C14        -9.5295   -0.1355   57.2012 C.3     1  ZINC000502834785    0.0300
     15 N15        -9.4468   -1.4942   57.7534 N.3     1  ZINC000502834785   -0.5000
     16 C16       -10.7483   -2.1881   57.6507 C.3     1  ZINC000502834785    0.0500
     17 C17       -10.8139   -3.0939   58.9056 C.3     1  ZINC000502834785   -0.1300
     18 C18       -10.1354   -2.1976   59.9748 C.3     1  ZINC000502834785   -0.1300
     19 C19        -9.0410   -1.4649   59.1705 C.3     1  ZINC000502834785    0.1500
     20 H20        -8.0859   -1.9755   59.2935 H       1  ZINC000502834785    0.1100
     21 C21        -8.9245   -0.0391   59.6445 C.2     1  ZINC000502834785    0.0600
     22 N22        -7.8311    0.6795   59.6533 N.2     1  ZINC000502834785   -0.2900
     23 N23        -8.1433    1.9452   60.1660 N.pl3   1  ZINC000502834785   -0.4800
     24 C24        -9.4595    1.9597   60.4634 C.2     1  ZINC000502834785    0.0600
     25 C25        -9.9677    0.7465   60.1453 C.2     1  ZINC000502834785   -0.2600
     26 C26        -8.2366    1.7184   52.5504 C.ar    1  ZINC000502834785   -0.1000
     27 C27        -7.2810    2.3723   51.7954 C.ar    1  ZINC000502834785   -0.1000
     28 H28        -3.2154    4.1400   50.1552 H       1  ZINC000502834785    0.0600
     29 H29        -2.0029    3.1132   50.9577 H       1  ZINC000502834785    0.0600
     30 H30        -1.6871    3.7549   49.3278 H       1  ZINC000502834785    0.0700
     31 H31        -3.5535    2.3917   48.4295 H       1  ZINC000502834785    0.0600
     32 H32        -1.5820    0.7950   50.1266 H       1  ZINC000502834785    0.0600
     33 H33        -2.4945    0.1701   48.7319 H       1  ZINC000502834785    0.0600
     34 H34        -1.2662    1.4366   48.4966 H       1  ZINC000502834785    0.0700
     35 H35        -5.1839    3.3613   50.6145 H       1  ZINC000502834785    0.0600
     36 H36        -5.6780    2.4241   49.1843 H       1  ZINC000502834785    0.0600
     37 H37        -5.7139   -0.3051   50.4712 H       1  ZINC000502834785    0.1300
     38 H38        -7.4122   -1.4700   51.8210 H       1  ZINC000502834785    0.1300
     39 H39       -10.2921    0.1007   53.2407 H       1  ZINC000502834785    0.0800
     40 H40        -9.3807   -1.4193   53.0757 H       1  ZINC000502834785    0.0800
     41 H41        -8.0181   -0.3350   55.0609 H       1  ZINC000502834785    0.4000
     42 H42        -8.5618    0.3562   57.2997 H       1  ZINC000502834785    0.1000
     43 H43       -10.2831    0.4329   57.7461 H       1  ZINC000502834785    0.0800
     44 H44       -11.5649   -1.4662   57.6607 H       1  ZINC000502834785    0.0400
     45 H45       -10.7858   -2.7923   56.7442 H       1  ZINC000502834785    0.1000
     46 H46       -11.8470   -3.3112   59.1768 H       1  ZINC000502834785    0.0800
     47 H47       -10.2501   -4.0142   58.7528 H       1  ZINC000502834785    0.0800
     48 H48       -10.8491   -1.4866   60.3909 H       1  ZINC000502834785    0.0800
     49 H49        -9.6921   -2.8063   60.7629 H       1  ZINC000502834785    0.0800
     50 H50        -7.5230    2.6813   60.2859 H       1  ZINC000502834785    0.4400
     51 H51       -10.0097    2.7919   60.8770 H       1  ZINC000502834785    0.1800
     52 H52       -10.9958    0.4375   60.2632 H       1  ZINC000502834785    0.1500
     53 H53        -8.9452    2.2868   53.1346 H       1  ZINC000502834785    0.1300
     54 H54        -7.2445    3.4517   51.7877 H       1  ZINC000502834785    0.1200
@<TRIPOS>BOND
     1     1     2    1
     2     1    28    1
     3     1    29    1
     4     1    30    1
     5     2     3    1
     6     2     4    1
     7     2    31    1
     8     3    32    1
     9     3    33    1
    10     3    34    1
    11     4     5    1
    12     5     6    1
    13     5    35    1
    14     5    36    1
    15     6    27   ar
    16     6     7   ar
    17     7     8   ar
    18     7    37    1
    19     8     9   ar
    20     8    38    1
    21     9    10    1
    22     9    26   ar
    23    10    11    1
    24    10    39    1
    25    10    40    1
    26    11    12   am
    27    11    41    1
    28    12    13    2
    29    12    14    1
    30    14    15    1
    31    14    42    1
    32    14    43    1
    33    15    19    1
    34    15    16    1
    35    16    17    1
    36    16    44    1
    37    16    45    1
    38    17    18    1
    39    17    46    1
    40    17    47    1
    41    18    19    1
    42    18    48    1
    43    18    49    1
    44    19    20    1
    45    19    21    1
    46    21    25    1
    47    21    22    2
    48    22    23    1
    49    23    24    1
    50    23    50    1
    51    24    25    2
    52    24    51    1
    53    25    52    1
    54    26    27   ar
    55    26    53    1
    56    27    54    1
@<TRIPOS>SUBSTRUCTURE
     1 ZINC000502834785        1 TEMP              0 ****  ****    0 ROOT


##########                                Name:    ZINC000460972051
##########                DOCK_Rotatable_Bonds:                  10
##########                         Heavy_Atoms:                  29
##########                    Molecular_Weight:             417.572
##########                DOCK_Rotatable_Bonds:                  10
##########                       Formal_Charge:         3.31551e-07
##########                     HBond_Acceptors:                   7
##########                        HBond_Donors:                   2
##########                         Heavy_Atoms:                  29
##########                          Grid_Score:          -35.548496
##########                     Grid_vdw_energy:          -35.736473
##########                      Grid_es_energy:            0.187976
##########           Internal_energy_repulsive:           33.997684

@<TRIPOS>MOLECULE
ZINC000460972051
 60 61 1 0 0
SMALL
USER_CHARGES


@<TRIPOS>ATOM
      1 C1         -4.1828    5.7083   55.1678 C.3     1  ZINC000460972051   -0.1800
      2 C2         -3.3318    6.2537   54.0191 C.3     1  ZINC000460972051    0.1000
      3 N3         -2.9650    5.1569   53.1197 N.am    1  ZINC000460972051   -0.6200
      4 C4         -3.8371    4.7324   52.1841 C.2     1  ZINC000460972051    0.7100
      5 O5         -4.9290    5.2586   52.0873 O.2     1  ZINC000460972051   -0.5800
      6 N6         -3.4990    3.7245   51.3556 N.am    1  ZINC000460972051   -0.7400
      7 C7         -4.4464    3.2641   50.3374 C.3     1  ZINC000460972051    0.2000
      8 H8         -4.6713    4.0828   49.6538 H       1  ZINC000460972051    0.1100
      9 C9         -3.8304    2.1019   49.5560 C.3     1  ZINC000460972051    0.1100
     10 N10        -2.5109    1.7865   50.1090 N.am    1  ZINC000460972051   -1.1200
     11 S11        -1.1424    2.2036   49.2751 S.o2    1  ZINC000460972051    2.7000
     12 O12        -1.2498    3.5929   48.9968 O.2     1  ZINC000460972051   -0.9500
     13 O13        -0.0508    1.6354   49.9855 O.2     1  ZINC000460972051   -0.9600
     14 C14        -1.2074    1.3780   47.7198 C.ar    1  ZINC000460972051   -0.6900
     15 C15        -1.4544    2.0969   46.5656 C.ar    1  ZINC000460972051   -0.0100
     16 C16        -1.5054    1.4491   45.3452 C.ar    1  ZINC000460972051   -0.1500
     17 C17        -1.3089    0.0826   45.2794 C.ar    1  ZINC000460972051   -0.0200
     18 C18        -1.3650   -0.6236   43.9494 C.3     1  ZINC000460972051   -0.1300
     19 C19        -1.0604   -0.6364   46.4339 C.ar    1  ZINC000460972051   -0.1500
     20 C20        -1.0057    0.0118   47.6534 C.ar    1  ZINC000460972051    0.0300
     21 C21        -0.7348   -0.7718   48.9118 C.3     1  ZINC000460972051   -0.1700
     22 C22        -5.7167    2.8036   51.0047 C.ar    1  ZINC000460972051   -0.1000
     23 C23        -6.9337    3.3270   50.6099 C.ar    1  ZINC000460972051   -0.1000
     24 C24        -8.0990    2.9046   51.2220 C.ar    1  ZINC000460972051   -0.1200
     25 C25        -8.0473    1.9584   52.2284 C.ar    1  ZINC000460972051   -0.1200
     26 C26        -6.8304    1.4343   52.6225 C.ar    1  ZINC000460972051   -0.1200
     27 C27        -5.6655    1.8536   52.0075 C.ar    1  ZINC000460972051   -0.1000
     28 C28        -1.6502    4.5217   53.2375 C.3     1  ZINC000460972051    0.1500
     29 C29        -0.6210    5.3283   52.4431 C.3     1  ZINC000460972051   -0.1600
     30 C30        -1.2359    4.4757   54.7097 C.3     1  ZINC000460972051   -0.1600
     31 H31        -4.4558    6.5244   55.8368 H       1  ZINC000460972051    0.0700
     32 H32        -5.0865    5.2511   54.7649 H       1  ZINC000460972051    0.0600
     33 H33        -3.6124    4.9612   55.7195 H       1  ZINC000460972051    0.0700
     34 H34        -3.9022    7.0009   53.4672 H       1  ZINC000460972051    0.0700
     35 H35        -2.4280    6.7110   54.4219 H       1  ZINC000460972051    0.0900
     36 H36        -2.6285    3.3039   51.4336 H       1  ZINC000460972051    0.4000
     37 H37        -4.4763    1.2275   49.6361 H       1  ZINC000460972051    0.0900
     38 H38        -3.7274    2.3829   48.5079 H       1  ZINC000460972051    0.0900
     39 H39        -2.4389    1.3335   50.9637 H       1  ZINC000460972051    0.4200
     40 H40        -1.6081    3.1647   46.6169 H       1  ZINC000460972051    0.1400
     41 H41        -1.6992    2.0108   44.4434 H       1  ZINC000460972051    0.1300
     42 H42        -0.3694   -0.6428   43.5060 H       1  ZINC000460972051    0.0800
     43 H43        -1.7178   -1.6446   44.0947 H       1  ZINC000460972051    0.0700
     44 H44        -2.0482   -0.0942   43.2854 H       1  ZINC000460972051    0.0700
     45 H45        -0.9065   -1.7041   46.3826 H       1  ZINC000460972051    0.1300
     46 H46         0.3276   -0.7208   49.1500 H       1  ZINC000460972051    0.0900
     47 H47        -1.3123   -0.3497   49.7342 H       1  ZINC000460972051    0.1000
     48 H48        -1.0238   -1.8121   48.7613 H       1  ZINC000460972051    0.0900
     49 H49        -6.9741    4.0663   49.8237 H       1  ZINC000460972051    0.1200
     50 H50        -9.0497    3.3142   50.9142 H       1  ZINC000460972051    0.1200
     51 H51        -8.9576    1.6289   52.7071 H       1  ZINC000460972051    0.1200
     52 H52        -6.7899    0.6953   53.4090 H       1  ZINC000460972051    0.1200
     53 H53        -4.7148    1.4441   52.3154 H       1  ZINC000460972051    0.1200
     54 H54        -1.7002    3.5071   52.8423 H       1  ZINC000460972051    0.1000
     55 H55        -0.9160    5.3611   51.3943 H       1  ZINC000460972051    0.0600
     56 H56        -0.5710    6.3429   52.8382 H       1  ZINC000460972051    0.0600
     57 H57         0.3573    4.8556   52.5308 H       1  ZINC000460972051    0.0700
     58 H58        -1.9691    3.9011   55.2756 H       1  ZINC000460972051    0.0600
     59 H59        -0.2577    4.0030   54.7973 H       1  ZINC000460972051    0.0700
     60 H60        -1.1858    5.4903   55.1048 H       1  ZINC000460972051    0.0600
@<TRIPOS>BOND
     1     1     2    1
     2     1    31    1
     3     1    32    1
     4     1    33    1
     5     2     3    1
     6     2    34    1
     7     2    35    1
     8     3     4   am
     9     3    28    1
    10     4     5    2
    11     4     6   am
    12     6     7    1
    13     6    36    1
    14     7     8    1
    15     7     9    1
    16     7    22    1
    17     9    10    1
    18     9    37    1
    19     9    38    1
    20    10    11   am
    21    10    39    1
    22    11    12    2
    23    11    13    2
    24    11    14    1
    25    14    20   ar
    26    14    15   ar
    27    15    16   ar
    28    15    40    1
    29    16    17   ar
    30    16    41    1
    31    17    18    1
    32    17    19   ar
    33    18    42    1
    34    18    43    1
    35    18    44    1
    36    19    20   ar
    37    19    45    1
    38    20    21    1
    39    21    46    1
    40    21    47    1
    41    21    48    1
    42    22    27   ar
    43    22    23   ar
    44    23    24   ar
    45    23    49    1
    46    24    25   ar
    47    24    50    1
    48    25    26   ar
    49    25    51    1
    50    26    27   ar
    51    26    52    1
    52    27    53    1
    53    28    29    1
    54    28    30    1
    55    28    54    1
    56    29    55    1
    57    29    56    1
    58    29    57    1
    59    30    58    1
    60    30    59    1
    61    30    60    1
@<TRIPOS>SUBSTRUCTURE
     1 ZINC000460972051        1 TEMP              0 ****  ****    0 ROOT


##########                                Name:    ZINC000603906271
##########                DOCK_Rotatable_Bonds:                   8
##########                         Heavy_Atoms:                  29
##########                    Molecular_Weight:             391.473
##########                DOCK_Rotatable_Bonds:                   8
##########                       Formal_Charge:           0.0499998
##########                     HBond_Acceptors:                   7
##########                        HBond_Donors:                   3
##########                         Heavy_Atoms:                  29
##########                          Grid_Score:          -35.547283
##########                     Grid_vdw_energy:          -33.584900
##########                      Grid_es_energy:           -1.962382
##########           Internal_energy_repulsive:           26.207867

@<TRIPOS>MOLECULE
ZINC000603906271
 54 56 1 0 0
SMALL
USER_CHARGES


@<TRIPOS>ATOM
      1 C1         -5.0784    3.2107   50.3435 C.3     1  ZINC000603906271   -0.1600
      2 C2         -3.7206    3.9044   50.4701 C.3     1  ZINC000603906271    0.1300
      3 H3         -3.7917    4.9173   50.0737 H       1  ZINC000603906271    0.1200
      4 N4         -3.3296    3.9586   51.8810 N.am    1  ZINC000603906271   -0.7100
      5 C5         -2.4021    4.8470   52.2896 C.2     1  ZINC000603906271    0.5700
      6 O6         -1.8890    5.6023   51.4873 O.2     1  ZINC000603906271   -0.5300
      7 C7         -2.0088    4.9029   53.7137 C.ar    1  ZINC000603906271   -0.1400
      8 C8         -1.0160    5.7902   54.1322 C.ar    1  ZINC000603906271   -0.0800
      9 C9         -0.6538    5.8377   55.4625 C.ar    1  ZINC000603906271   -0.1200
     10 C10        -1.2721    5.0079   56.3810 C.ar    1  ZINC000603906271   -0.0400
     11 C11        -0.8710    5.0648   57.8325 C.3     1  ZINC000603906271   -0.0400
     12 C12         0.2671    4.0744   58.0864 C.3     1  ZINC000603906271   -0.1400
     13 C13        -0.4021    6.4799   58.1768 C.3     1  ZINC000603906271   -0.1500
     14 C14        -2.0710    4.6981   58.7080 C.3     1  ZINC000603906271   -0.1400
     15 C15        -2.2573    4.1263   55.9727 C.ar    1  ZINC000603906271   -0.1300
     16 C16        -2.6325    4.0727   54.6462 C.ar    1  ZINC000603906271   -0.0500
     17 C17        -2.6872    3.1317   49.6916 C.2     1  ZINC000603906271    0.5100
     18 O18        -1.6011    3.6244   49.4705 O.2     1  ZINC000603906271   -0.5100
     19 N19        -2.9698    1.8934   49.2411 N.am    1  ZINC000603906271   -0.6700
     20 C20        -2.0101    1.1759   48.5182 C.ar    1  ZINC000603906271    0.1300
     21 C21        -0.9591    0.5568   49.1831 C.ar    1  ZINC000603906271   -0.1200
     22 C22        -0.0093   -0.1528   48.4724 C.ar    1  ZINC000603906271   -0.1000
     23 C23        -0.0995   -0.2498   47.0984 C.ar    1  ZINC000603906271   -0.0900
     24 C24        -1.1504    0.3687   46.4231 C.ar    1  ZINC000603906271    0.0000
     25 C25        -1.2485    0.2658   44.9458 C.2     1  ZINC000603906271    0.2700
     26 N26        -2.3588    0.0995   44.2611 N.2     1  ZINC000603906271   -0.3000
     27 N27        -1.9945    0.0556   42.9056 N.pl3   1  ZINC000603906271   -0.4800
     28 C28        -0.6580    0.2019   42.8638 C.2     1  ZINC000603906271    0.2700
     29 N29        -0.2211    0.3327   44.0884 N.2     1  ZINC000603906271   -0.5300
     30 C30        -2.1111    1.0778   47.1385 C.ar    1  ZINC000603906271   -0.0800
     31 H31        -5.0074    2.1979   50.7399 H       1  ZINC000603906271    0.0700
     32 H32        -5.8259    3.7697   50.9065 H       1  ZINC000603906271    0.0800
     33 H33        -5.3693    3.1705   49.2938 H       1  ZINC000603906271    0.0700
     34 H34        -3.7382    3.3550   52.5210 H       1  ZINC000603906271    0.4100
     35 H35        -0.5321    6.4380   53.4162 H       1  ZINC000603906271    0.1300
     36 H36         0.1143    6.5238   55.7878 H       1  ZINC000603906271    0.1300
     37 H37         1.1220    4.3357   57.4627 H       1  ZINC000603906271    0.0600
     38 H38         0.5573    4.1157   59.1363 H       1  ZINC000603906271    0.0600
     39 H39        -0.0670    3.0663   57.8411 H       1  ZINC000603906271    0.0600
     40 H40        -1.2129    7.1855   57.9960 H       1  ZINC000603906271    0.0600
     41 H41        -0.1119    6.5211   59.2267 H       1  ZINC000603906271    0.0600
     42 H42         0.4528    6.7412   57.5531 H       1  ZINC000603906271    0.0600
     43 H43        -2.4050    3.6900   58.4627 H       1  ZINC000603906271    0.0600
     44 H44        -1.7809    4.7394   59.7578 H       1  ZINC000603906271    0.0600
     45 H45        -2.8819    5.4037   58.5272 H       1  ZINC000603906271    0.0600
     46 H46        -2.7363    3.4816   56.6947 H       1  ZINC000603906271    0.1400
     47 H47        -3.4020    3.3844   54.3289 H       1  ZINC000603906271    0.1400
     48 H48        -3.8383    1.4994   49.4180 H       1  ZINC000603906271    0.4200
     49 H49        -0.8837    0.6303   50.2579 H       1  ZINC000603906271    0.1300
     50 H50         0.8060   -0.6324   48.9937 H       1  ZINC000603906271    0.1400
     51 H51         0.6447   -0.8047   46.5463 H       1  ZINC000603906271    0.1400
     52 H52        -2.5898   -0.0582   42.1482 H       1  ZINC000603906271    0.4400
     53 H53        -0.0505    0.2139   41.9708 H       1  ZINC000603906271    0.2300
     54 H54        -2.9271    1.5587   46.6197 H       1  ZINC000603906271    0.1500
@<TRIPOS>BOND
     1     1     2    1
     2     1    31    1
     3     1    32    1
     4     1    33    1
     5     2     3    1
     6     2     4    1
     7     2    17    1
     8     4     5   am
     9     4    34    1
    10     5     6    2
    11     5     7    1
    12     7    16   ar
    13     7     8   ar
    14     8     9   ar
    15     8    35    1
    16     9    10   ar
    17     9    36    1
    18    10    11    1
    19    10    15   ar
    20    11    12    1
    21    11    13    1
    22    11    14    1
    23    12    37    1
    24    12    38    1
    25    12    39    1
    26    13    40    1
    27    13    41    1
    28    13    42    1
    29    14    43    1
    30    14    44    1
    31    14    45    1
    32    15    16   ar
    33    15    46    1
    34    16    47    1
    35    17    18    2
    36    17    19   am
    37    19    20    1
    38    19    48    1
    39    20    30   ar
    40    20    21   ar
    41    21    22   ar
    42    21    49    1
    43    22    23   ar
    44    22    50    1
    45    23    24   ar
    46    23    51    1
    47    24    25    1
    48    24    30   ar
    49    25    29    1
    50    25    26    2
    51    26    27    1
    52    27    28    1
    53    27    52    1
    54    28    29    2
    55    28    53    1
    56    30    54    1
@<TRIPOS>SUBSTRUCTURE
     1 ZINC000603906271        1 TEMP              0 ****  ****    0 ROOT


##########                                Name:    ZINC001124460178
##########                DOCK_Rotatable_Bonds:                  12
##########                         Heavy_Atoms:                  22
##########                    Molecular_Weight:             328.479
##########                DOCK_Rotatable_Bonds:                  12
##########                       Formal_Charge:          -0.0100003
##########                     HBond_Acceptors:                   7
##########                        HBond_Donors:                   2
##########                         Heavy_Atoms:                  22
##########                          Grid_Score:          -35.545696
##########                     Grid_vdw_energy:          -35.426788
##########                      Grid_es_energy:           -0.118909
##########           Internal_energy_repulsive:           11.993041

@<TRIPOS>MOLECULE
ZINC001124460178
 50 50 1 0 0
SMALL
USER_CHARGES


@<TRIPOS>ATOM
      1 C1         -1.4924    0.4525   44.4724 C.3     1  ZINC001124460178   -0.0700
      2 C2         -1.4887    0.6108   45.9711 C.2     1  ZINC001124460178    0.3100
      3 N3         -0.6392   -0.0384   46.7127 N.2     1  ZINC001124460178   -0.5000
      4 S4         -0.9764    0.4231   48.3132 S.3     1  ZINC001124460178    0.1800
      5 C5         -2.2650    1.4826   47.8820 C.2     1  ZINC001124460178    0.3400
      6 N6         -3.0475    2.2454   48.7300 N.pl3   1  ZINC001124460178   -0.6600
      7 C7         -3.1959    1.8592   50.1353 C.3     1  ZINC001124460178    0.0900
      8 C8         -4.4010    2.5836   50.7387 C.3     1  ZINC001124460178    0.0800
      9 H9         -4.5211    2.2841   51.7798 H       1  ZINC001124460178    0.1200
     10 O10        -4.1913    3.9954   50.6703 O.3     1  ZINC001124460178   -0.5500
     11 C11        -5.6620    2.2167   49.9538 C.3     1  ZINC001124460178    0.0900
     12 N12        -6.8313    2.3253   50.8297 N.am    1  ZINC001124460178   -0.6100
     13 C13        -7.6630    3.5309   50.7952 C.3     1  ZINC001124460178    0.0800
     14 C14        -7.1418    1.3162   51.6674 C.2     1  ZINC001124460178    0.5100
     15 O15        -6.4525    0.3188   51.6971 O.2     1  ZINC001124460178   -0.5400
     16 C16        -8.3457    1.4272   52.5671 C.3     1  ZINC001124460178   -0.1400
     17 C17        -8.6237    0.0701   53.2167 C.3     1  ZINC001124460178   -0.1100
     18 C18        -9.8149    0.1949   54.1689 C.3     1  ZINC001124460178   -0.1200
     19 C19       -10.0375   -1.1388   54.8846 C.3     1  ZINC001124460178   -0.1200
     20 C20       -11.0163   -0.9387   56.0434 C.3     1  ZINC001124460178   -0.1000
     21 C21       -12.3964   -0.5795   55.4890 C.3     1  ZINC001124460178   -0.1500
     22 C22       -11.1140   -2.2304   56.8574 C.3     1  ZINC001124460178   -0.1500
     23 N23        -2.3390    1.4122   46.5696 N.2     1  ZINC001124460178   -0.5800
     24 H24        -0.8225    1.1884   44.0277 H       1  ZINC001124460178    0.0900
     25 H25        -1.1544   -0.5506   44.2121 H       1  ZINC001124460178    0.0900
     26 H26        -2.5029    0.6052   44.0934 H       1  ZINC001124460178    0.0900
     27 H27        -3.4980    3.0361   48.3940 H       1  ZINC001124460178    0.4200
     28 H28        -3.3487    0.7820   50.2020 H       1  ZINC001124460178    0.0800
     29 H29        -2.2950    2.1330   50.6845 H       1  ZINC001124460178    0.0900
     30 H30        -4.1682    4.3464   49.7695 H       1  ZINC001124460178    0.3800
     31 H31        -5.7757    2.8972   49.1100 H       1  ZINC001124460178    0.0900
     32 H32        -5.5768    1.1939   49.5867 H       1  ZINC001124460178    0.1000
     33 H33        -8.4552    3.4047   50.0572 H       1  ZINC001124460178    0.0600
     34 H34        -8.1047    3.6958   51.7779 H       1  ZINC001124460178    0.0800
     35 H35        -7.0477    4.3890   50.5247 H       1  ZINC001124460178    0.0800
     36 H36        -8.1527    2.1685   53.3426 H       1  ZINC001124460178    0.0900
     37 H37        -9.2115    1.7330   51.9797 H       1  ZINC001124460178    0.0900
     38 H38        -8.8523   -0.6630   52.4431 H       1  ZINC001124460178    0.0700
     39 H39        -7.7447   -0.2526   53.7747 H       1  ZINC001124460178    0.0700
     40 H40        -9.6116    0.9728   54.9049 H       1  ZINC001124460178    0.0600
     41 H41       -10.7079    0.4563   53.6013 H       1  ZINC001124460178    0.0600
     42 H42       -10.4492   -1.8637   54.1824 H       1  ZINC001124460178    0.0600
     43 H43        -9.0871   -1.5068   55.2713 H       1  ZINC001124460178    0.0600
     44 H44       -10.6608   -0.1315   56.6840 H       1  ZINC001124460178    0.0700
     45 H45       -12.7519   -1.3867   54.8484 H       1  ZINC001124460178    0.0500
     46 H46       -13.0937   -0.4369   56.3146 H       1  ZINC001124460178    0.0500
     47 H47       -12.3269    0.3407   54.9092 H       1  ZINC001124460178    0.0500
     48 H48       -10.1308   -2.4862   57.2523 H       1  ZINC001124460178    0.0600
     49 H49       -11.8113   -2.0878   57.6830 H       1  ZINC001124460178    0.0500
     50 H50       -11.4695   -3.0375   56.2169 H       1  ZINC001124460178    0.0500
@<TRIPOS>BOND
     1     1     2    1
     2     1    24    1
     3     1    25    1
     4     1    26    1
     5     2    23    1
     6     2     3    2
     7     3     4    1
     8     4     5    1
     9     5     6    1
    10     5    23    2
    11     6     7    1
    12     6    27    1
    13     7     8    1
    14     7    28    1
    15     7    29    1
    16     8     9    1
    17     8    10    1
    18     8    11    1
    19    10    30    1
    20    11    12    1
    21    11    31    1
    22    11    32    1
    23    12    13    1
    24    12    14   am
    25    13    33    1
    26    13    34    1
    27    13    35    1
    28    14    15    2
    29    14    16    1
    30    16    17    1
    31    16    36    1
    32    16    37    1
    33    17    18    1
    34    17    38    1
    35    17    39    1
    36    18    19    1
    37    18    40    1
    38    18    41    1
    39    19    20    1
    40    19    42    1
    41    19    43    1
    42    20    21    1
    43    20    22    1
    44    20    44    1
    45    21    45    1
    46    21    46    1
    47    21    47    1
    48    22    48    1
    49    22    49    1
    50    22    50    1
@<TRIPOS>SUBSTRUCTURE
     1 ZINC001124460178        1 TEMP              0 ****  ****    0 ROOT


##########                                Name:    ZINC000652498551
##########                DOCK_Rotatable_Bonds:                   6
##########                         Heavy_Atoms:                  23
##########                    Molecular_Weight:             388.277
##########                DOCK_Rotatable_Bonds:                   6
##########                       Formal_Charge:          -0.0400001
##########                     HBond_Acceptors:                   5
##########                        HBond_Donors:                   1
##########                         Heavy_Atoms:                  23
##########                          Grid_Score:          -35.531746
##########                     Grid_vdw_energy:          -32.526440
##########                      Grid_es_energy:           -3.005306
##########           Internal_energy_repulsive:           20.779613

@<TRIPOS>MOLECULE
ZINC000652498551
 46 47 1 0 0
SMALL
USER_CHARGES


@<TRIPOS>ATOM
      1 C1          0.3865    2.2246   45.2353 C.3     1  ZINC000652498551   -0.1300
      2 C2         -0.6976    1.2251   45.6438 C.3     1  ZINC000652498551   -0.1300
      3 C3         -1.9009    1.9812   46.2107 C.3     1  ZINC000652498551   -0.1300
      4 C4         -1.1269    0.4292   44.4383 C.2     1  ZINC000652498551    0.5000
      5 O5         -0.3304    0.1988   43.5446 O.co2   1  ZINC000652498551   -0.7000
      6 O6         -2.2710    0.0155   44.3568 O.co2   1  ZINC000652498551   -0.6700
      7 C7         -0.1425    0.2777   46.7092 C.3     1  ZINC000652498551   -0.0600
      8 H8          0.8452   -0.0708   46.4072 H       1  ZINC000652498551    0.0700
      9 C9         -1.0819   -0.9213   46.8668 C.3     1  ZINC000652498551   -0.1500
     10 C10        -0.5590   -1.8229   47.9889 C.3     1  ZINC000652498551   -0.1400
     11 C11        -0.4394   -1.0066   49.2776 C.3     1  ZINC000652498551   -0.0100
     12 N12         0.4919    0.1087   49.0700 N.4     1  ZINC000652498551   -0.3800
     13 H13         1.3850   -0.2518   48.7690 H       1  ZINC000652498551    0.4200
     14 C14         0.6619    0.8440   50.3303 C.3     1  ZINC000652498551    0.0000
     15 C15         1.5097    2.0931   50.0817 C.3     1  ZINC000652498551    0.0200
     16 O16         0.6534    3.2261   49.9225 O.3     1  ZINC000652498551   -0.3100
     17 C17        -0.1609    3.5353   50.9656 C.ar    1  ZINC000652498551    0.1600
     18 C18         0.3841    3.8787   52.1936 C.ar    1  ZINC000652498551   -0.2300
     19 C19        -0.4471    4.1932   53.2546 C.ar    1  ZINC000652498551    0.1500
     20 F20         0.0828    4.5280   54.4514 F       1  ZINC000652498551   -0.1200
     21 C21        -1.8215    4.1651   53.0896 C.ar    1  ZINC000652498551   -0.1600
     22 C22        -2.3659    3.8221   51.8649 C.ar    1  ZINC000652498551   -0.0300
     23 Br23       -4.2434    3.7848   51.6429 Br      1  ZINC000652498551   -0.0100
     24 C24        -1.5386    3.5131   50.8015 C.ar    1  ZINC000652498551   -0.1300
     25 C25        -0.0372    1.0165   48.0450 C.3     1  ZINC000652498551   -0.0200
     26 H26         0.6970    2.8004   46.1072 H       1  ZINC000652498551    0.0400
     27 H27         1.2436    1.6859   44.8314 H       1  ZINC000652498551    0.0500
     28 H28        -0.0090    2.8995   44.4762 H       1  ZINC000652498551    0.0600
     29 H29        -2.2964    2.6562   45.4517 H       1  ZINC000652498551    0.0700
     30 H30        -2.6732    1.2692   46.5016 H       1  ZINC000652498551    0.0400
     31 H31        -1.5903    2.5570   47.0826 H       1  ZINC000652498551    0.0500
     32 H32        -2.0825   -0.5699   47.1180 H       1  ZINC000652498551    0.1300
     33 H33        -1.1152   -1.4833   45.9334 H       1  ZINC000652498551    0.0800
     34 H34        -1.2523   -2.6494   48.1445 H       1  ZINC000652498551    0.1000
     35 H35         0.4202   -2.2152   47.7142 H       1  ZINC000652498551    0.0700
     36 H36        -1.4191   -0.6151   49.5515 H       1  ZINC000652498551    0.1300
     37 H37        -0.0676   -1.6455   50.0786 H       1  ZINC000652498551    0.1100
     38 H38        -0.3149    1.1383   50.7139 H       1  ZINC000652498551    0.1400
     39 H39         1.1610    0.2054   51.0591 H       1  ZINC000652498551    0.1500
     40 H40         2.1741    2.2563   50.9302 H       1  ZINC000652498551    0.1100
     41 H41         2.1024    1.9559   49.1772 H       1  ZINC000652498551    0.0900
     42 H42         1.4561    3.9005   52.3221 H       1  ZINC000652498551    0.1500
     43 H43        -2.4693    4.4111   53.9179 H       1  ZINC000652498551    0.1500
     44 H44        -1.9645    3.2457   49.8458 H       1  ZINC000652498551    0.1500
     45 H45         0.6312    1.8706   47.9368 H       1  ZINC000652498551    0.1100
     46 H46        -1.0255    1.3653   48.3445 H       1  ZINC000652498551    0.1700
@<TRIPOS>BOND
     1     1     2    1
     2     1    26    1
     3     1    27    1
     4     1    28    1
     5     2     3    1
     6     2     4    1
     7     2     7    1
     8     3    29    1
     9     3    30    1
    10     3    31    1
    11     4     5   ar
    12     4     6   ar
    13     7     8    1
    14     7    25    1
    15     7     9    1
    16     9    10    1
    17     9    32    1
    18     9    33    1
    19    10    11    1
    20    10    34    1
    21    10    35    1
    22    11    12    1
    23    11    36    1
    24    11    37    1
    25    12    13    1
    26    12    14    1
    27    12    25    1
    28    14    15    1
    29    14    38    1
    30    14    39    1
    31    15    16    1
    32    15    40    1
    33    15    41    1
    34    16    17    1
    35    17    24   ar
    36    17    18   ar
    37    18    19   ar
    38    18    42    1
    39    19    20    1
    40    19    21   ar
    41    21    22   ar
    42    21    43    1
    43    22    23    1
    44    22    24   ar
    45    24    44    1
    46    25    45    1
    47    25    46    1
@<TRIPOS>SUBSTRUCTURE
     1 ZINC000652498551        1 TEMP              0 ****  ****    0 ROOT


##########                                Name:    ZINC001191196975
##########                DOCK_Rotatable_Bonds:                  14
##########                         Heavy_Atoms:                  24
##########                    Molecular_Weight:             339.438
##########                DOCK_Rotatable_Bonds:                  14
##########                       Formal_Charge:          0.00999969
##########                     HBond_Acceptors:                   8
##########                        HBond_Donors:                   4
##########                         Heavy_Atoms:                  24
##########                          Grid_Score:          -35.505207
##########                     Grid_vdw_energy:          -35.217342
##########                      Grid_es_energy:           -0.287865
##########           Internal_energy_repulsive:           13.015327

@<TRIPOS>MOLECULE
ZINC001191196975
 53 53 1 0 0
SMALL
USER_CHARGES


@<TRIPOS>ATOM
      1 C1         -0.8561   -1.1366   48.7030 C.2     1  ZINC001191196975   -0.1600
      2 C2         -1.2708    0.0382   48.2983 C.2     1  ZINC001191196975   -0.1800
      3 C3         -1.3362    1.1896   49.2685 C.3     1  ZINC001191196975    0.1500
      4 N4         -2.7042    1.3243   49.7750 N.am    1  ZINC001191196975   -0.7300
      5 C5         -3.6626    1.8596   48.9931 C.2     1  ZINC001191196975    0.5100
      6 O6         -3.3928    2.2285   47.8698 O.2     1  ZINC001191196975   -0.5200
      7 C7         -5.0694    1.9999   49.5149 C.3     1  ZINC001191196975    0.0300
      8 N8         -5.0367    2.5959   50.8572 N.3     1  ZINC001191196975   -0.5100
      9 C9         -4.6914    4.0223   50.7916 C.3     1  ZINC001191196975    0.0200
     10 C10        -6.3144    2.3951   51.5537 C.3     1  ZINC001191196975    0.0700
     11 H11        -7.1229    2.9151   51.0400 H       1  ZINC001191196975    0.0600
     12 C12        -6.2167    2.8446   53.0355 C.3     1  ZINC001191196975   -0.1200
     13 C13        -7.2903    1.9807   53.7302 C.3     1  ZINC001191196975    0.1000
     14 N14        -7.5238    0.8057   52.8780 N.am    1  ZINC001191196975   -0.6200
     15 C15        -8.4073   -0.1814   53.1259 C.2     1  ZINC001191196975    0.5300
     16 O16        -8.5155   -1.1074   52.3502 O.2     1  ZINC001191196975   -0.5400
     17 C17        -9.2606   -0.1347   54.3671 C.3     1  ZINC001191196975   -0.1300
     18 C18       -10.4220   -1.1205   54.2251 C.3     1  ZINC001191196975   -0.1000
     19 C19       -11.3898   -0.9406   55.3963 C.3     1  ZINC001191196975   -0.1300
     20 C20       -10.7797   -1.5496   56.6603 C.3     1  ZINC001191196975    0.1400
     21 N21       -11.7764   -1.5470   57.7339 N.am    1  ZINC001191196975   -0.7500
     22 C22       -11.7076   -2.4636   58.7195 C.2     1  ZINC001191196975    0.7000
     23 N23       -12.6237   -2.4602   59.7081 N.am    1  ZINC001191196975   -0.8700
     24 O24       -10.8192   -3.2937   58.7169 O.2     1  ZINC001191196975   -0.5900
     25 C25        -6.6328    0.8866   51.7057 C.3     1  ZINC001191196975    0.1100
     26 H26        -0.5612   -1.2801   49.7321 H       1  ZINC001191196975    0.1000
     27 H27        -0.8134   -1.9628   48.0088 H       1  ZINC001191196975    0.1000
     28 H28        -1.5657    0.1818   47.2693 H       1  ZINC001191196975    0.1200
     29 H29        -0.6575    1.0025   50.1006 H       1  ZINC001191196975    0.0800
     30 H30        -1.0443    2.1091   48.7612 H       1  ZINC001191196975    0.0700
     31 H31        -2.9202    1.0283   50.6731 H       1  ZINC001191196975    0.4000
     32 H32        -5.6427    2.6420   48.8462 H       1  ZINC001191196975    0.0700
     33 H33        -5.5381    1.0171   49.5651 H       1  ZINC001191196975    0.1100
     34 H34        -5.3700    4.5292   50.1056 H       1  ZINC001191196975    0.0200
     35 H35        -4.7813    4.4638   51.7841 H       1  ZINC001191196975    0.0700
     36 H36        -3.6667    4.1321   50.4366 H       1  ZINC001191196975    0.0900
     37 H37        -5.2275    2.6292   53.4395 H       1  ZINC001191196975    0.0900
     38 H38        -6.4520    3.9045   53.1332 H       1  ZINC001191196975    0.0800
     39 H39        -6.9335    1.6630   54.7100 H       1  ZINC001191196975    0.0700
     40 H40        -8.2132    2.5509   53.8366 H       1  ZINC001191196975    0.0700
     41 H41        -8.6571   -0.4066   55.2333 H       1  ZINC001191196975    0.0900
     42 H42        -9.6536    0.8731   54.5001 H       1  ZINC001191196975    0.0900
     43 H43       -10.9463   -0.9316   53.2883 H       1  ZINC001191196975    0.0800
     44 H44       -10.0357   -2.1398   54.2261 H       1  ZINC001191196975    0.0800
     45 H45       -11.5726    0.1220   55.5567 H       1  ZINC001191196975    0.0700
     46 H46       -12.3313   -1.4411   55.1699 H       1  ZINC001191196975    0.0700
     47 H47       -10.4682   -2.5740   56.4562 H       1  ZINC001191196975    0.0700
     48 H48        -9.9147   -0.9610   56.9661 H       1  ZINC001191196975    0.0700
     49 H49       -12.4859   -0.8855   57.7354 H       1  ZINC001191196975    0.4000
     50 H50       -12.5749   -3.1207   60.4169 H       1  ZINC001191196975    0.4000
     51 H51       -13.3318   -1.7972   59.7108 H       1  ZINC001191196975    0.4200
     52 H52        -7.1409    0.5137   50.8164 H       1  ZINC001191196975    0.0800
     53 H53        -5.7175    0.3227   51.8852 H       1  ZINC001191196975    0.0800
@<TRIPOS>BOND
     1     1     2    2
     2     1    26    1
     3     1    27    1
     4     2     3    1
     5     2    28    1
     6     3     4    1
     7     3    29    1
     8     3    30    1
     9     4     5   am
    10     4    31    1
    11     5     6    2
    12     5     7    1
    13     7     8    1
    14     7    32    1
    15     7    33    1
    16     8     9    1
    17     8    10    1
    18     9    34    1
    19     9    35    1
    20     9    36    1
    21    10    11    1
    22    10    25    1
    23    10    12    1
    24    12    13    1
    25    12    37    1
    26    12    38    1
    27    13    14    1
    28    13    39    1
    29    13    40    1
    30    14    15   am
    31    14    25    1
    32    15    16    2
    33    15    17    1
    34    17    18    1
    35    17    41    1
    36    17    42    1
    37    18    19    1
    38    18    43    1
    39    18    44    1
    40    19    20    1
    41    19    45    1
    42    19    46    1
    43    20    21    1
    44    20    47    1
    45    20    48    1
    46    21    22   am
    47    21    49    1
    48    22    23   am
    49    22    24    2
    50    23    50    1
    51    23    51    1
    52    25    52    1
    53    25    53    1
@<TRIPOS>SUBSTRUCTURE
     1 ZINC001191196975        1 TEMP              0 ****  ****    0 ROOT


##########                                Name:    ZINC000022858610
##########                DOCK_Rotatable_Bonds:                   9
##########                         Heavy_Atoms:                  26
##########                    Molecular_Weight:             369.343
##########                DOCK_Rotatable_Bonds:                   9
##########                       Formal_Charge:          0.00999956
##########                     HBond_Acceptors:                   9
##########                        HBond_Donors:                   2
##########                         Heavy_Atoms:                  26
##########                          Grid_Score:          -35.491886
##########                     Grid_vdw_energy:          -35.543365
##########                      Grid_es_energy:            0.051479
##########           Internal_energy_repulsive:           18.873001

@<TRIPOS>MOLECULE
ZINC000022858610
 44 45 1 0 0
SMALL
USER_CHARGES


@<TRIPOS>ATOM
      1 C1         -5.8460    2.0319   52.5768 C.3     1  <0>         0.0100
      2 N2         -5.5274    1.3057   51.3404 N.3     1  <0>        -0.5300
      3 C3         -6.6247    0.4058   50.9607 C.3     1  <0>         0.0200
      4 C4         -5.2092    2.2370   50.2498 C.3     1  <0>         0.1500
      5 H5         -5.5911    1.8396   49.3095 H       1  <0>         0.1200
      6 C6         -3.6920    2.4086   50.1522 C.3     1  <0>         0.1300
      7 N7         -3.2810    2.3309   48.7483 N.am    1  <0>        -0.6800
      8 C8         -2.4269    1.3681   48.3485 C.2     1  <0>         0.5100
      9 O9         -1.9993    0.5646   49.1511 O.2     1  <0>        -0.5100
     10 C10        -2.0065    1.2899   46.9174 C.2     1  <0>         0.5200
     11 O11        -2.4231    2.1019   46.1173 O.2     1  <0>        -0.4900
     12 N12        -1.1645    0.3177   46.5145 N.am    1  <0>        -0.6500
     13 C13        -0.7713    0.2446   45.1757 C.ar    1  <0>         0.1900
     14 C14        -1.6012   -0.3570   44.2382 C.ar    1  <0>        -0.1200
     15 C15        -1.2092   -0.4276   42.9157 C.ar    1  <0>        -0.0700
     16 C16         0.0076    0.0999   42.5245 C.ar    1  <0>        -0.1300
     17 C17         0.8366    0.6992   43.4554 C.ar    1  <0>        -0.0500
     18 C18         0.4484    0.7787   44.7781 C.ar    1  <0>        -0.2100
     19 C19         1.3522    1.4319   45.7917 C.3     1  <0>         0.5100
     20 F20         0.7698    2.6237   46.2363 F       1  <0>        -0.1700
     21 F21         1.5357    0.5691   46.8774 F       1  <0>        -0.1800
     22 F22         2.5903    1.7094   45.2022 F       1  <0>        -0.1700
     23 C23        -5.8490    3.5729   50.5274 C.2     1  <0>        -0.0500
     24 C24        -7.1629    3.8485   50.4431 C.2     1  <0>        -0.1900
     25 C25        -7.3183    5.2113   50.7858 C.2     1  <0>        -0.2100
     26 C26        -6.0901    5.6871   51.0589 C.2     1  <0>        -0.0400
     27 O27        -5.2047    4.6887   50.9064 O.3     1  <0>        -0.1700
     28 H28        -5.8930    1.3295   53.4090 H       1  <0>         0.0700
     29 H29        -5.0724    2.7747   52.7716 H       1  <0>         0.0700
     30 H30        -6.8091    2.5305   52.4674 H       1  <0>         0.0500
     31 H31        -7.5326    0.9873   50.8004 H       1  <0>         0.0300
     32 H32        -6.3627   -0.1194   50.0422 H       1  <0>         0.0700
     33 H33        -6.7932   -0.3183   51.7579 H       1  <0>         0.0800
     34 H34        -3.4090    3.3790   50.5604 H       1  <0>         0.0900
     35 H35        -3.1997    1.6185   50.7192 H       1  <0>         0.0800
     36 H36        -3.6237    2.9723   48.1064 H       1  <0>         0.4200
     37 H37        -0.8315   -0.3312   47.1539 H       1  <0>         0.4300
     38 H38        -2.5516   -0.7695   44.5431 H       1  <0>         0.1500
     39 H39        -1.8538   -0.8955   42.1863 H       1  <0>         0.1400
     40 H40         0.3115    0.0434   41.4897 H       1  <0>         0.1400
     41 H41         1.7867    1.1095   43.1466 H       1  <0>         0.1500
     42 H42        -7.9483    3.1609   50.1662 H       1  <0>         0.1500
     43 H43        -8.2453    5.7645   50.8211 H       1  <0>         0.1500
     44 H44        -5.8562    6.6991   51.3547 H       1  <0>         0.2000
@<TRIPOS>BOND
     1     1     2    1
     2     1    28    1
     3     1    29    1
     4     1    30    1
     5     2     3    1
     6     2     4    1
     7     3    31    1
     8     3    32    1
     9     3    33    1
    10     4     5    1
    11     4     6    1
    12     4    23    1
    13     6     7    1
    14     6    34    1
    15     6    35    1
    16     7     8   am
    17     7    36    1
    18     8     9    2
    19     8    10    1
    20    10    11    2
    21    10    12   am
    22    12    13    1
    23    12    37    1
    24    13    18   ar
    25    13    14   ar
    26    14    15   ar
    27    14    38    1
    28    15    16   ar
    29    15    39    1
    30    16    17   ar
    31    16    40    1
    32    17    18   ar
    33    17    41    1
    34    18    19    1
    35    19    20    1
    36    19    21    1
    37    19    22    1
    38    23    27    1
    39    23    24    2
    40    24    25    1
    41    24    42    1
    42    25    26    2
    43    25    43    1
    44    26    27    1
    45    26    44    1
@<TRIPOS>SUBSTRUCTURE
     1 <0>         1 TEMP              0 ****  ****    0 ROOT


##########                                Name:    ZINC000863246516
##########                DOCK_Rotatable_Bonds:                   5
##########                         Heavy_Atoms:                  25
##########                    Molecular_Weight:             356.489
##########                DOCK_Rotatable_Bonds:                   5
##########                       Formal_Charge:         -0.00999938
##########                     HBond_Acceptors:                   5
##########                        HBond_Donors:                   0
##########                         Heavy_Atoms:                  25
##########                          Grid_Score:          -35.469135
##########                     Grid_vdw_energy:          -36.596222
##########                      Grid_es_energy:            1.127087
##########           Internal_energy_repulsive:           15.165132

@<TRIPOS>MOLECULE
ZINC000863246516
 49 52 1 0 0
SMALL
USER_CHARGES


@<TRIPOS>ATOM
      1 C1         -1.4402   -0.1201   43.9109 C.3     1  ZINC000863246516   -0.0600
      2 C2         -1.4068   -0.0475   45.4159 C.2     1  ZINC000863246516   -0.2000
      3 C3         -1.6140    1.0200   46.1741 C.2     1  ZINC000863246516    0.0900
      4 C4         -1.9263    2.3670   45.5747 C.3     1  ZINC000863246516   -0.1000
      5 N5         -1.5310    0.8391   47.5225 N.am    1  ZINC000863246516   -0.5300
      6 C6         -1.7423    1.9487   48.4556 C.3     1  ZINC000863246516    0.1200
      7 C7         -2.8087    1.5572   49.4804 C.3     1  ZINC000863246516   -0.1500
      8 C8         -3.2280    2.7770   50.2599 C.2     1  ZINC000863246516    0.5400
      9 O9         -2.4510    3.6955   50.4131 O.2     1  ZINC000863246516   -0.5300
     10 N10        -4.4665    2.8471   50.7868 N.am    1  ZINC000863246516   -0.6100
     11 C11        -4.9958    3.9741   51.5633 C.3     1  ZINC000863246516    0.1100
     12 C12        -6.5300    3.8354   51.5563 C.3     1  ZINC000863246516   -0.1300
     13 H13        -7.0555    4.4941   50.8651 H       1  ZINC000863246516    0.1000
     14 C14        -7.1301    3.7043   52.9660 C.3     1  ZINC000863246516   -0.1200
     15 C15        -6.6815    2.2342   52.9427 C.3     1  ZINC000863246516   -0.0600
     16 H16        -5.6711    2.0807   53.3219 H       1  ZINC000863246516    0.1000
     17 C17        -7.6843    1.2883   53.5516 C.ar    1  ZINC000863246516   -0.0700
     18 C18        -8.1492    0.2102   52.8219 C.ar    1  ZINC000863246516   -0.1200
     19 C19        -9.0691   -0.6573   53.3804 C.ar    1  ZINC000863246516   -0.1200
     20 C20        -9.5238   -0.4472   54.6688 C.ar    1  ZINC000863246516   -0.1200
     21 C21        -9.0581    0.6304   55.3989 C.ar    1  ZINC000863246516   -0.1200
     22 C22        -8.1350    1.4956   54.8419 C.ar    1  ZINC000863246516   -0.1200
     23 C23        -6.7579    2.3121   51.3911 C.3     1  ZINC000863246516   -0.1100
     24 H24        -7.7038    2.0035   50.9460 H       1  ZINC000863246516    0.1200
     25 C25        -5.4983    1.8116   50.6686 C.3     1  ZINC000863246516    0.1200
     26 C26        -1.2483   -0.3980   47.9603 C.2     1  ZINC000863246516    0.4800
     27 O27        -1.1325   -0.7585   49.1183 O.2     1  ZINC000863246516   -0.4700
     28 S28        -1.0897   -1.3725   46.5492 S.3     1  ZINC000863246516    0.0100
     29 H29        -1.2339   -1.1417   43.5918 H       1  ZINC000863246516    0.0700
     30 H30        -2.4256    0.1799   43.5544 H       1  ZINC000863246516    0.0800
     31 H31        -0.6852    0.5489   43.4980 H       1  ZINC000863246516    0.0800
     32 H32        -1.9438    2.2858   44.4879 H       1  ZINC000863246516    0.0900
     33 H33        -2.8998    2.7056   45.9294 H       1  ZINC000863246516    0.0800
     34 H34        -1.1614    3.0838   45.8733 H       1  ZINC000863246516    0.0800
     35 H35        -0.8082    2.1730   48.9707 H       1  ZINC000863246516    0.1000
     36 H36        -2.0737    2.8287   47.9044 H       1  ZINC000863246516    0.1000
     37 H37        -3.6737    1.1411   48.9639 H       1  ZINC000863246516    0.1000
     38 H38        -2.4002    0.8123   50.1633 H       1  ZINC000863246516    0.1000
     39 H39        -4.6220    3.9304   52.5863 H       1  ZINC000863246516    0.0700
     40 H40        -4.7044    4.9163   51.0991 H       1  ZINC000863246516    0.0800
     41 H41        -6.6160    4.3050   53.7163 H       1  ZINC000863246516    0.0800
     42 H42        -8.2126    3.8293   52.9924 H       1  ZINC000863246516    0.0900
     43 H43        -7.7940    0.0460   51.8153 H       1  ZINC000863246516    0.1200
     44 H44        -9.4328   -1.4993   52.8100 H       1  ZINC000863246516    0.1200
     45 H45       -10.2429   -1.1247   55.1049 H       1  ZINC000863246516    0.1200
     46 H46        -9.4136    0.7948   56.4053 H       1  ZINC000863246516    0.1200
     47 H47        -7.7713    2.3375   55.4123 H       1  ZINC000863246516    0.1200
     48 H48        -5.7272    1.6170   49.6208 H       1  ZINC000863246516    0.0700
     49 H49        -5.1394    0.8983   51.1433 H       1  ZINC000863246516    0.0700
@<TRIPOS>BOND
     1     1     2    1
     2     1    29    1
     3     1    30    1
     4     1    31    1
     5     2    28    1
     6     2     3    2
     7     3     4    1
     8     3     5    1
     9     4    32    1
    10     4    33    1
    11     4    34    1
    12     5     6    1
    13     5    26   am
    14     6     7    1
    15     6    35    1
    16     6    36    1
    17     7     8    1
    18     7    37    1
    19     7    38    1
    20     8     9    2
    21     8    10   am
    22    10    25    1
    23    10    11    1
    24    11    12    1
    25    11    39    1
    26    11    40    1
    27    12    13    1
    28    12    23    1
    29    12    14    1
    30    14    15    1
    31    14    41    1
    32    14    42    1
    33    15    16    1
    34    15    17    1
    35    15    23    1
    36    17    22   ar
    37    17    18   ar
    38    18    19   ar
    39    18    43    1
    40    19    20   ar
    41    19    44    1
    42    20    21   ar
    43    20    45    1
    44    21    22   ar
    45    21    46    1
    46    22    47    1
    47    23    24    1
    48    23    25    1
    49    25    48    1
    50    25    49    1
    51    26    27    2
    52    26    28    1
@<TRIPOS>SUBSTRUCTURE
     1 ZINC000863246516        1 TEMP              0 ****  ****    0 ROOT


##########                                Name:    ZINC000471198073
##########                DOCK_Rotatable_Bonds:                  12
##########                         Heavy_Atoms:                  30
##########                    Molecular_Weight:             409.528
##########                DOCK_Rotatable_Bonds:                  12
##########                       Formal_Charge:          -0.0399998
##########                     HBond_Acceptors:                   6
##########                        HBond_Donors:                   3
##########                         Heavy_Atoms:                  30
##########                          Grid_Score:          -35.468777
##########                     Grid_vdw_energy:          -36.111092
##########                      Grid_es_energy:            0.642314
##########           Internal_energy_repulsive:           25.725790

@<TRIPOS>MOLECULE
ZINC000471198073
 61 62 1 0 0
SMALL
USER_CHARGES


@<TRIPOS>ATOM
      1 C1          0.7817    0.4191   47.5197 C.3     1  ZINC000471198073   -0.1400
      2 C2         -0.6649   -0.0513   47.6839 C.3     1  ZINC000471198073   -0.1100
      3 C3         -0.6778   -1.5127   48.1367 C.3     1  ZINC000471198073   -0.1500
      4 C4         -1.3561    0.8007   48.7170 C.2     1  ZINC000471198073    0.5200
      5 O5         -1.2340    0.5430   49.8959 O.2     1  ZINC000471198073   -0.5200
      6 N6         -2.1097    1.8493   48.3310 N.am    1  ZINC000471198073   -0.6700
      7 C7         -2.7514    2.6405   49.2903 C.ar    1  ZINC000471198073    0.1600
      8 C8         -2.0629    3.6739   49.9128 C.ar    1  ZINC000471198073   -0.1500
      9 C9         -2.6958    4.4561   50.8600 C.ar    1  ZINC000471198073   -0.0800
     10 C10        -4.0146    4.2135   51.1912 C.ar    1  ZINC000471198073   -0.1300
     11 C11        -4.7092    3.1806   50.5725 C.ar    1  ZINC000471198073    0.1500
     12 N12        -6.0432    2.9352   50.9082 N.am    1  ZINC000471198073   -0.6400
     13 C13        -6.3473    1.9707   51.7990 C.2     1  ZINC000471198073    0.5100
     14 O14        -5.4626    1.3153   52.3098 O.2     1  ZINC000471198073   -0.5000
     15 C15        -7.7732    1.7083   52.1579 C.2     1  ZINC000471198073    0.5100
     16 O16        -8.6489    2.4345   51.7350 O.2     1  ZINC000471198073   -0.5100
     17 N17        -8.0875    0.6652   52.9514 N.am    1  ZINC000471198073   -0.7000
     18 C18        -9.4859    0.4089   53.3047 C.3     1  ZINC000471198073    0.1200
     19 C19        -9.5889    0.1231   54.8042 C.3     1  ZINC000471198073   -0.0900
     20 H20        -8.6317   -0.2486   55.1699 H       1  ZINC000471198073    0.0800
     21 C21        -9.9526    1.4113   55.5452 C.3     1  ZINC000471198073   -0.0800
     22 C22        -9.0060    1.6104   56.7009 C.ar    1  ZINC000471198073   -0.0800
     23 C23        -9.4926    1.6478   57.9942 C.ar    1  ZINC000471198073   -0.1200
     24 C24        -8.6244    1.8305   59.0543 C.ar    1  ZINC000471198073   -0.1200
     25 C25        -7.2695    1.9752   58.8210 C.ar    1  ZINC000471198073   -0.1200
     26 C26        -6.7829    1.9368   57.5277 C.ar    1  ZINC000471198073   -0.1200
     27 C27        -7.6506    1.7499   56.4680 C.ar    1  ZINC000471198073   -0.1200
     28 C28       -10.6719   -0.9295   55.0495 C.3     1  ZINC000471198073   -0.1000
     29 C29       -10.8143   -1.1738   56.5531 C.3     1  ZINC000471198073   -0.1600
     30 C30       -12.0042   -0.4316   54.4853 C.3     1  ZINC000471198073   -0.1700
     31 C31        -4.0779    2.3970   49.6166 C.ar    1  ZINC000471198073   -0.1400
     32 H32         1.2816   -0.1972   46.7725 H       1  ZINC000471198073    0.0700
     33 H33         0.7908    1.4602   47.1971 H       1  ZINC000471198073    0.0600
     34 H34         1.3032    0.3294   48.4726 H       1  ZINC000471198073    0.0600
     35 H35        -1.1865    0.0384   46.7310 H       1  ZINC000471198073    0.1000
     36 H36        -0.1562   -1.6024   49.0896 H       1  ZINC000471198073    0.0600
     37 H37        -1.7083   -1.8479   48.2537 H       1  ZINC000471198073    0.0600
     38 H38        -0.1778   -2.1290   47.3895 H       1  ZINC000471198073    0.0700
     39 H39        -2.2074    2.0554   47.3883 H       1  ZINC000471198073    0.4100
     40 H40        -1.0315    3.8661   49.6564 H       1  ZINC000471198073    0.1300
     41 H41        -2.1581    5.2588   51.3427 H       1  ZINC000471198073    0.1300
     42 H42        -4.5064    4.8265   51.9319 H       1  ZINC000471198073    0.1400
     43 H43        -6.7503    3.4590   50.5000 H       1  ZINC000471198073    0.4200
     44 H44        -7.3877    0.0841   53.2883 H       1  ZINC000471198073    0.4200
     45 H45       -10.0888    1.2833   53.0593 H       1  ZINC000471198073    0.0700
     46 H46        -9.8502   -0.4524   52.7448 H       1  ZINC000471198073    0.0800
     47 H47        -9.8754    2.2574   54.8624 H       1  ZINC000471198073    0.0800
     48 H48       -10.9736    1.3389   55.9201 H       1  ZINC000471198073    0.0800
     49 H49       -10.5511    1.5348   58.1765 H       1  ZINC000471198073    0.1200
     50 H50        -9.0046    1.8605   60.0647 H       1  ZINC000471198073    0.1200
     51 H51        -6.5913    2.1186   59.6491 H       1  ZINC000471198073    0.1200
     52 H52        -5.7245    2.0502   57.3454 H       1  ZINC000471198073    0.1200
     53 H53        -7.2705    1.7199   55.4575 H       1  ZINC000471198073    0.1200
     54 H54       -10.3929   -1.8600   54.5550 H       1  ZINC000471198073    0.0800
     55 H55       -11.1880   -0.2701   57.0344 H       1  ZINC000471198073    0.0600
     56 H56       -11.5140   -1.9921   56.7235 H       1  ZINC000471198073    0.0600
     57 H57        -9.8425   -1.4336   56.9727 H       1  ZINC000471198073    0.0600
     58 H58       -11.8705   -0.1371   53.4444 H       1  ZINC000471198073    0.0600
     59 H59       -12.7447   -1.2292   54.5450 H       1  ZINC000471198073    0.0600
     60 H60       -12.3462    0.4259   55.0646 H       1  ZINC000471198073    0.0700
     61 H61        -4.6153    1.5939   49.1344 H       1  ZINC000471198073    0.1400
@<TRIPOS>BOND
     1     1     2    1
     2     1    32    1
     3     1    33    1
     4     1    34    1
     5     2     3    1
     6     2     4    1
     7     2    35    1
     8     3    36    1
     9     3    37    1
    10     3    38    1
    11     4     5    2
    12     4     6   am
    13     6     7    1
    14     6    39    1
    15     7    31   ar
    16     7     8   ar
    17     8     9   ar
    18     8    40    1
    19     9    10   ar
    20     9    41    1
    21    10    11   ar
    22    10    42    1
    23    11    12    1
    24    11    31   ar
    25    12    13   am
    26    12    43    1
    27    13    14    2
    28    13    15    1
    29    15    16    2
    30    15    17   am
    31    17    18    1
    32    17    44    1
    33    18    19    1
    34    18    45    1
    35    18    46    1
    36    19    20    1
    37    19    21    1
    38    19    28    1
    39    21    22    1
    40    21    47    1
    41    21    48    1
    42    22    27   ar
    43    22    23   ar
    44    23    24   ar
    45    23    49    1
    46    24    25   ar
    47    24    50    1
    48    25    26   ar
    49    25    51    1
    50    26    27   ar
    51    26    52    1
    52    27    53    1
    53    28    29    1
    54    28    30    1
    55    28    54    1
    56    29    55    1
    57    29    56    1
    58    29    57    1
    59    30    58    1
    60    30    59    1
    61    30    60    1
    62    31    61    1
@<TRIPOS>SUBSTRUCTURE
     1 ZINC000471198073        1 TEMP              0 ****  ****    0 ROOT


##########                                Name:    ZINC000508765459
##########                DOCK_Rotatable_Bonds:                  10
##########                         Heavy_Atoms:                  29
##########                    Molecular_Weight:               405.5
##########                DOCK_Rotatable_Bonds:                  10
##########                       Formal_Charge:         -6.4075e-07
##########                     HBond_Acceptors:                  10
##########                        HBond_Donors:                   1
##########                         Heavy_Atoms:                  29
##########                          Grid_Score:          -35.452789
##########                     Grid_vdw_energy:          -34.229362
##########                      Grid_es_energy:           -1.223428
##########           Internal_energy_repulsive:           16.818455

@<TRIPOS>MOLECULE
ZINC000508765459
 60 62 1 0 0
SMALL
USER_CHARGES


@<TRIPOS>ATOM
      1 C1          2.5628    0.5519   45.6818 C.3     1  ZINC000508765459    0.0300
      2 O2          1.3778    0.0788   46.3254 O.3     1  ZINC000508765459   -0.3900
      3 C3          1.6218   -0.6445   47.5334 C.3     1  ZINC000508765459    0.0500
      4 C4          0.2882   -1.0677   48.1526 C.3     1  ZINC000508765459    0.1100
      5 N5         -0.5484    0.1158   48.3663 N.am    1  ZINC000508765459   -0.5900
      6 C6         -0.4327    0.8051   49.6441 C.3     1  ZINC000508765459    0.1000
      7 C7         -0.9155    2.2520   49.5258 C.3     1  ZINC000508765459    0.1200
      8 N8         -2.2008    2.2503   48.8067 N.am    1  ZINC000508765459   -0.6400
      9 C9         -3.3292    2.7046   49.3867 C.2     1  ZINC000508765459    0.7100
     10 O10        -4.3775    2.6906   48.7709 O.2     1  ZINC000508765459   -0.5800
     11 N11        -3.2958    3.1745   50.6495 N.am    1  ZINC000508765459   -0.7400
     12 C12        -4.5229    3.6667   51.2807 C.3     1  ZINC000508765459    0.1400
     13 C13        -5.1278    2.5623   52.1497 C.3     1  ZINC000508765459   -0.1400
     14 C14        -6.1510    3.1718   53.1100 C.3     1  ZINC000508765459    0.0600
     15 N15        -6.9592    2.1012   53.7086 N.3     1  ZINC000508765459   -0.5400
     16 C16        -8.0296    1.6760   52.7957 C.3     1  ZINC000508765459    0.0500
     17 C17        -8.7965    0.5087   53.4216 C.3     1  ZINC000508765459    0.0700
     18 N18        -9.3488    0.9276   54.7174 N.3     1  ZINC000508765459   -0.4600
     19 C19       -10.1102   -0.0813   55.2814 C.ar    1  ZINC000508765459    0.4900
     20 N20        -9.7989   -1.3443   55.0298 N.ar    1  ZINC000508765459   -0.5500
     21 C21       -10.5057   -2.3323   55.5532 C.ar    1  ZINC000508765459    0.1700
     22 C22       -11.5824   -2.0326   56.3730 C.ar    1  ZINC000508765459   -0.2600
     23 C23       -11.8804   -0.7009   56.6154 C.ar    1  ZINC000508765459    0.1700
     24 N24       -11.1299    0.2389   56.0646 N.ar    1  ZINC000508765459   -0.5300
     25 C25        -8.2786    1.3527   55.6303 C.3     1  ZINC000508765459    0.0700
     26 C26        -7.5116    2.5199   55.0044 C.3     1  ZINC000508765459    0.0600
     27 C27        -2.2025    1.7334   47.4301 C.3     1  ZINC000508765459    0.1000
     28 C28        -1.3587    0.4895   47.3749 C.2     1  ZINC000508765459    0.5100
     29 O29        -1.4243   -0.2107   46.3869 O.2     1  ZINC000508765459   -0.5400
     30 H30         3.2003   -0.2946   45.4266 H       1  ZINC000508765459    0.0400
     31 H31         2.2926    1.0901   44.7733 H       1  ZINC000508765459    0.0900
     32 H32         3.0992    1.2210   46.3546 H       1  ZINC000508765459    0.0400
     33 H33         2.2172   -1.5304   47.3126 H       1  ZINC000508765459    0.0500
     34 H34         2.1625   -0.0088   48.2346 H       1  ZINC000508765459    0.0600
     35 H35        -0.2223   -1.7569   47.4800 H       1  ZINC000508765459    0.1100
     36 H36         0.4711   -1.5606   49.1075 H       1  ZINC000508765459    0.0900
     37 H37        -1.0362    0.2852   50.3882 H       1  ZINC000508765459    0.0700
     38 H38         0.6101    0.7997   49.9615 H       1  ZINC000508765459    0.1000
     39 H39        -1.0510    2.6770   50.5204 H       1  ZINC000508765459    0.1200
     40 H40        -0.1842    2.8395   48.9707 H       1  ZINC000508765459    0.0800
     41 H41        -2.4593    3.1868   51.1405 H       1  ZINC000508765459    0.4000
     42 H42        -4.2901    4.5316   51.9020 H       1  ZINC000508765459    0.0700
     43 H43        -5.2375    3.9549   50.5098 H       1  ZINC000508765459    0.0700
     44 H44        -5.6199    1.8274   51.5127 H       1  ZINC000508765459    0.0700
     45 H45        -4.3374    2.0762   52.7217 H       1  ZINC000508765459    0.0800
     46 H46        -5.6308    3.7176   53.8970 H       1  ZINC000508765459    0.0800
     47 H47        -6.8009    3.8548   52.5627 H       1  ZINC000508765459    0.0400
     48 H48        -8.7118    2.5083   52.6226 H       1  ZINC000508765459    0.0500
     49 H49        -7.5945    1.3589   51.8480 H       1  ZINC000508765459    0.0900
     50 H50        -9.6091    0.2107   52.7591 H       1  ZINC000508765459    0.0900
     51 H51        -8.1201   -0.3331   53.5696 H       1  ZINC000508765459    0.0600
     52 H52       -10.2472   -3.3597   55.3442 H       1  ZINC000508765459    0.1700
     53 H53       -12.1766   -2.8199   56.8131 H       1  ZINC000508765459    0.1500
     54 H54       -12.7130   -0.4337   57.2493 H       1  ZINC000508765459    0.1700
     55 H55        -8.7135    1.6699   56.5781 H       1  ZINC000508765459    0.1000
     56 H56        -7.5963    0.5204   55.8034 H       1  ZINC000508765459    0.0500
     57 H57        -6.6990    2.8179   55.6669 H       1  ZINC000508765459    0.0900
     58 H58        -8.1880    3.3618   54.8564 H       1  ZINC000508765459    0.0500
     59 H59        -3.2237    1.4988   47.1296 H       1  ZINC000508765459    0.1100
     60 H60        -1.7855    2.4834   46.7581 H       1  ZINC000508765459    0.1100
@<TRIPOS>BOND
     1     1     2    1
     2     1    30    1
     3     1    31    1
     4     1    32    1
     5     2     3    1
     6     3     4    1
     7     3    33    1
     8     3    34    1
     9     4     5    1
    10     4    35    1
    11     4    36    1
    12     5    28   am
    13     5     6    1
    14     6     7    1
    15     6    37    1
    16     6    38    1
    17     7     8    1
    18     7    39    1
    19     7    40    1
    20     8     9   am
    21     8    27    1
    22     9    10    2
    23     9    11   am
    24    11    12    1
    25    11    41    1
    26    12    13    1
    27    12    42    1
    28    12    43    1
    29    13    14    1
    30    13    44    1
    31    13    45    1
    32    14    15    1
    33    14    46    1
    34    14    47    1
    35    15    26    1
    36    15    16    1
    37    16    17    1
    38    16    48    1
    39    16    49    1
    40    17    18    1
    41    17    50    1
    42    17    51    1
    43    18    19    1
    44    18    25    1
    45    19    24   ar
    46    19    20   ar
    47    20    21   ar
    48    21    22   ar
    49    21    52    1
    50    22    23   ar
    51    22    53    1
    52    23    24   ar
    53    23    54    1
    54    25    26    1
    55    25    55    1
    56    25    56    1
    57    26    57    1
    58    26    58    1
    59    27    28    1
    60    27    59    1
    61    27    60    1
    62    28    29    2
@<TRIPOS>SUBSTRUCTURE
     1 ZINC000508765459        1 TEMP              0 ****  ****    0 ROOT


##########                                Name:    ZINC000008416770
##########                DOCK_Rotatable_Bonds:                  13
##########                         Heavy_Atoms:                  30
##########                    Molecular_Weight:             412.442
##########                DOCK_Rotatable_Bonds:                  13
##########                       Formal_Charge:          -0.0199998
##########                     HBond_Acceptors:                   8
##########                        HBond_Donors:                   2
##########                         Heavy_Atoms:                  30
##########                          Grid_Score:          -35.445446
##########                     Grid_vdw_energy:          -35.256050
##########                      Grid_es_energy:           -0.189398
##########           Internal_energy_repulsive:            7.993183

@<TRIPOS>MOLECULE
ZINC000008416770
 54 55 1 0 0
SMALL
USER_CHARGES


@<TRIPOS>ATOM
      1 C1        -11.8752   -1.7841   59.8311 C.3     1  ZINC000008416770   -0.1500
      2 C2        -11.7302   -3.0324   58.9583 C.3     1  ZINC000008416770    0.0600
      3 O3        -11.0941   -2.6741   57.7032 O.3     1  ZINC000008416770   -0.3500
      4 C4        -11.8308   -1.9666   56.8241 C.2     1  ZINC000008416770    0.5100
      5 O5        -13.0436   -1.9848   56.8946 O.2     1  ZINC000008416770   -0.5100
      6 C6        -11.1648   -1.1703   55.7767 C.ar    1  ZINC000008416770   -0.1500
      7 C7        -11.4601    0.1889   55.6358 C.ar    1  ZINC000008416770   -0.0400
      8 C8        -10.8362    0.9292   54.6573 C.ar    1  ZINC000008416770   -0.1400
      9 C9         -9.9126    0.3262   53.8090 C.ar    1  ZINC000008416770    0.1800
     10 N10        -9.2827    1.0791   52.8191 N.am    1  ZINC000008416770   -0.6700
     11 C11        -7.9650    1.3464   52.9119 C.2     1  ZINC000008416770    0.5200
     12 O12        -7.3272    0.9319   53.8564 O.2     1  ZINC000008416770   -0.5100
     13 C13        -7.2841    2.1602   51.8417 C.3     1  ZINC000008416770   -0.1300
     14 C14        -6.4025    1.2456   50.9889 C.3     1  ZINC000008416770   -0.1000
     15 C15        -5.5399    2.0835   50.0808 C.2     1  ZINC000008416770    0.4700
     16 O16        -5.9150    3.1778   49.7317 O.2     1  ZINC000008416770   -0.5100
     17 O17        -4.3550    1.6142   49.6594 O.3     1  ZINC000008416770   -0.3300
     18 C18        -3.1916    2.4486   49.9016 C.3     1  ZINC000008416770    0.0500
     19 C19        -2.2233    2.3051   48.7558 C.2     1  ZINC000008416770    0.5100
     20 O20        -1.3837    3.1584   48.5607 O.2     1  ZINC000008416770   -0.4900
     21 N21        -2.2902    1.2284   47.9480 N.am    1  ZINC000008416770   -0.6700
     22 C22        -1.3911    1.0950   46.8841 C.ar    1  ZINC000008416770    0.1400
     23 C23        -1.8164    1.3200   45.5813 C.ar    1  ZINC000008416770   -0.1400
     24 C24        -0.9265    1.1876   44.5334 C.ar    1  ZINC000008416770   -0.1000
     25 C25         0.3865    0.8310   44.7803 C.ar    1  ZINC000008416770   -0.1000
     26 C26         1.3546    0.6870   43.6343 C.3     1  ZINC000008416770   -0.1200
     27 C27         0.8132    0.6068   46.0763 C.ar    1  ZINC000008416770   -0.1000
     28 C28        -0.0703    0.7431   47.1291 C.ar    1  ZINC000008416770   -0.1200
     29 C29        -9.6160   -1.0263   53.9466 C.ar    1  ZINC000008416770   -0.1600
     30 C30       -10.2324   -1.7716   54.9260 C.ar    1  ZINC000008416770   -0.0300
     31 H31       -10.8896   -1.3635   60.0303 H       1  ZINC000008416770    0.0700
     32 H32       -12.4867   -1.0465   59.3113 H       1  ZINC000008416770    0.0700
     33 H33       -12.3528   -2.0530   60.7732 H       1  ZINC000008416770    0.0800
     34 H34       -11.1188   -3.7700   59.4780 H       1  ZINC000008416770    0.0700
     35 H35       -12.7158   -3.4529   58.7590 H       1  ZINC000008416770    0.0700
     36 H36       -12.1771    0.6574   56.2936 H       1  ZINC000008416770    0.1400
     37 H37       -11.0641    1.9791   54.5477 H       1  ZINC000008416770    0.1400
     38 H38        -9.7928    1.4106   52.0635 H       1  ZINC000008416770    0.4200
     39 H39        -8.0366    2.6318   51.2098 H       1  ZINC000008416770    0.1100
     40 H40        -6.6670    2.9288   52.3072 H       1  ZINC000008416770    0.1100
     41 H41        -5.7678    0.6435   51.6391 H       1  ZINC000008416770    0.1200
     42 H42        -7.0330    0.5901   50.3884 H       1  ZINC000008416770    0.1200
     43 H43        -3.5026    3.4898   49.9864 H       1  ZINC000008416770    0.1100
     44 H44        -2.7077    2.1374   50.8274 H       1  ZINC000008416770    0.1100
     45 H45        -2.9615    0.5459   48.1040 H       1  ZINC000008416770    0.4100
     46 H46        -2.8419    1.5978   45.3878 H       1  ZINC000008416770    0.1300
     47 H47        -1.2566    1.3624   43.5200 H       1  ZINC000008416770    0.1300
     48 H48         1.8408    1.6444   43.4469 H       1  ZINC000008416770    0.0700
     49 H49         2.1076   -0.0597   43.8866 H       1  ZINC000008416770    0.0700
     50 H50         0.8157    0.3720   42.7408 H       1  ZINC000008416770    0.0700
     51 H51         1.8394    0.3284   46.2658 H       1  ZINC000008416770    0.1300
     52 H52         0.2636    0.5678   48.1412 H       1  ZINC000008416770    0.1300
     53 H53        -8.8983   -1.4910   53.2867 H       1  ZINC000008416770    0.1400
     54 H54       -10.0017   -2.8213   55.0322 H       1  ZINC000008416770    0.1400
@<TRIPOS>BOND
     1     1     2    1
     2     1    31    1
     3     1    32    1
     4     1    33    1
     5     2     3    1
     6     2    34    1
     7     2    35    1
     8     3     4    1
     9     4     5    2
    10     4     6    1
    11     6    30   ar
    12     6     7   ar
    13     7     8   ar
    14     7    36    1
    15     8     9   ar
    16     8    37    1
    17     9    10    1
    18     9    29   ar
    19    10    11   am
    20    10    38    1
    21    11    12    2
    22    11    13    1
    23    13    14    1
    24    13    39    1
    25    13    40    1
    26    14    15    1
    27    14    41    1
    28    14    42    1
    29    15    16    2
    30    15    17    1
    31    17    18    1
    32    18    19    1
    33    18    43    1
    34    18    44    1
    35    19    20    2
    36    19    21   am
    37    21    22    1
    38    21    45    1
    39    22    28   ar
    40    22    23   ar
    41    23    24   ar
    42    23    46    1
    43    24    25   ar
    44    24    47    1
    45    25    26    1
    46    25    27   ar
    47    26    48    1
    48    26    49    1
    49    26    50    1
    50    27    28   ar
    51    27    51    1
    52    28    52    1
    53    29    30   ar
    54    29    53    1
    55    30    54    1
@<TRIPOS>SUBSTRUCTURE
     1 ZINC000008416770        1 TEMP              0 ****  ****    0 ROOT


##########                                Name:    ZINC000494558165
##########                DOCK_Rotatable_Bonds:                  11
##########                         Heavy_Atoms:                  28
##########                    Molecular_Weight:             409.506
##########                DOCK_Rotatable_Bonds:                  11
##########                       Formal_Charge:        -6.55651e-07
##########                     HBond_Acceptors:                   9
##########                        HBond_Donors:                   3
##########                         Heavy_Atoms:                  28
##########                          Grid_Score:          -35.427498
##########                     Grid_vdw_energy:          -33.683197
##########                      Grid_es_energy:           -1.744302
##########           Internal_energy_repulsive:           37.209106

@<TRIPOS>MOLECULE
ZINC000494558165
 55 57 1 0 0
SMALL
USER_CHARGES


@<TRIPOS>ATOM
      1 O1         -3.5230    2.2165   48.1410 O.2     1  ZINC000494558165   -0.4400
      2 C2         -2.7416    2.3971   49.0501 C.2     1  ZINC000494558165    0.5100
      3 C3         -1.2712    2.5548   48.7599 C.3     1  ZINC000494558165    0.0300
      4 N4         -0.5171    1.5154   49.4733 N.3     1  ZINC000494558165   -0.5000
      5 C5         -0.9893    0.1746   49.1028 C.3     1  ZINC000494558165    0.0500
      6 C6         -1.0420    0.0556   47.5783 C.3     1  ZINC000494558165   -0.1100
      7 C7         -1.0729   -1.4220   47.1829 C.3     1  ZINC000494558165    0.0800
      8 O8         -1.4986   -1.5427   45.8242 O.3     1  ZINC000494558165   -0.5700
      9 C9          0.9253    1.6513   49.2305 C.3     1  ZINC000494558165    0.1200
     10 H10         1.2961    0.7941   48.6686 H       1  ZINC000494558165    0.1000
     11 C11         1.6835    1.7832   50.5684 C.3     1  ZINC000494558165   -0.1200
     12 C12         1.7532    3.3131   50.7605 C.3     1  ZINC000494558165   -0.0900
     13 C13         1.6892    3.8910   49.3630 C.ar    1  ZINC000494558165   -0.0900
     14 C14         2.0204    5.1522   48.8975 C.ar    1  ZINC000494558165   -0.1100
     15 C15         1.8769    5.4588   47.5581 C.ar    1  ZINC000494558165   -0.1100
     16 C16         1.4014    4.5041   46.6792 C.ar    1  ZINC000494558165   -0.1200
     17 C17         1.0704    3.2451   47.1417 C.ar    1  ZINC000494558165   -0.1000
     18 C18         1.2131    2.9348   48.4814 C.ar    1  ZINC000494558165   -0.1300
     19 N19        -3.1887    2.4626   50.3199 N.am    1  ZINC000494558165   -0.6900
     20 C20        -4.5037    2.3216   50.5795 C.2     1  ZINC000494558165    0.7000
     21 O21        -5.2862    2.1340   49.6687 O.2     1  ZINC000494558165   -0.5200
     22 N22        -4.9510    2.3888   51.8491 N.am    1  ZINC000494558165   -0.7300
     23 C23        -6.3801    2.2337   52.1314 C.3     1  ZINC000494558165    0.1700
     24 H24        -6.9622    2.5892   51.2811 H       1  ZINC000494558165    0.1200
     25 C25        -6.6981    0.7509   52.3924 C.3     1  ZINC000494558165   -0.1400
     26 C26        -8.1233    0.7033   53.0012 C.3     1  ZINC000494558165   -0.5800
     27 S27        -8.0974    2.1010   54.1866 S.o2    1  ZINC000494558165    2.4000
     28 O28        -9.3126    2.8301   54.0817 O.2     1  ZINC000494558165   -0.9300
     29 O29        -7.6593    1.6344   55.4553 O.2     1  ZINC000494558165   -0.9300
     30 C30        -6.7510    3.0448   53.3889 C.3     1  ZINC000494558165   -0.6200
     31 H31        -1.0999    2.4570   47.6879 H       1  ZINC000494558165    0.0700
     32 H32        -0.9386    3.5380   49.0928 H       1  ZINC000494558165    0.1200
     33 H33        -0.3059   -0.5746   49.5023 H       1  ZINC000494558165    0.0900
     34 H34        -1.9857    0.0137   49.5144 H       1  ZINC000494558165    0.0400
     35 H35        -1.9392    0.5502   47.2061 H       1  ZINC000494558165    0.0700
     36 H36        -0.1603    0.5290   47.1464 H       1  ZINC000494558165    0.0800
     37 H37        -0.0752   -1.8479   47.2902 H       1  ZINC000494558165    0.0500
     38 H38        -1.7678   -1.9569   47.8303 H       1  ZINC000494558165    0.0400
     39 H39        -1.5363   -2.4541   45.5032 H       1  ZINC000494558165    0.3800
     40 H40         1.1236    1.3162   51.3787 H       1  ZINC000494558165    0.0900
     41 H41         2.6835    1.3565   50.4908 H       1  ZINC000494558165    0.0800
     42 H42         0.9057    3.6591   51.3520 H       1  ZINC000494558165    0.0800
     43 H43         2.6905    3.5914   51.2423 H       1  ZINC000494558165    0.0800
     44 H44         2.3918    5.8989   49.5838 H       1  ZINC000494558165    0.1200
     45 H45         2.1365    6.4434   47.1982 H       1  ZINC000494558165    0.1300
     46 H46         1.2882    4.7422   45.6318 H       1  ZINC000494558165    0.1200
     47 H47         0.6984    2.4998   46.4543 H       1  ZINC000494558165    0.1200
     48 H48        -2.5641    2.6112   51.0470 H       1  ZINC000494558165    0.4100
     49 H49        -4.3266    2.5397   52.5759 H       1  ZINC000494558165    0.4000
     50 H50        -6.6733    0.1934   51.4560 H       1  ZINC000494558165    0.1100
     51 H51        -5.9776    0.3328   53.0954 H       1  ZINC000494558165    0.0900
     52 H52        -8.8783    0.8629   52.2314 H       1  ZINC000494558165    0.1400
     53 H53        -8.2911   -0.2406   53.5196 H       1  ZINC000494558165    0.1400
     54 H54        -5.8942    3.1210   54.0582 H       1  ZINC000494558165    0.1500
     55 H55        -7.1009    4.0375   53.1059 H       1  ZINC000494558165    0.1500
@<TRIPOS>BOND
     1     1     2    2
     2     2     3    1
     3     2    19   am
     4     3     4    1
     5     3    31    1
     6     3    32    1
     7     4     5    1
     8     4     9    1
     9     5     6    1
    10     5    33    1
    11     5    34    1
    12     6     7    1
    13     6    35    1
    14     6    36    1
    15     7     8    1
    16     7    37    1
    17     7    38    1
    18     8    39    1
    19     9    10    1
    20     9    18    1
    21     9    11    1
    22    11    12    1
    23    11    40    1
    24    11    41    1
    25    12    13    1
    26    12    42    1
    27    12    43    1
    28    13    18   ar
    29    13    14   ar
    30    14    15   ar
    31    14    44    1
    32    15    16   ar
    33    15    45    1
    34    16    17   ar
    35    16    46    1
    36    17    18   ar
    37    17    47    1
    38    19    20   am
    39    19    48    1
    40    20    21    2
    41    20    22   am
    42    22    23    1
    43    22    49    1
    44    23    24    1
    45    23    30    1
    46    23    25    1
    47    25    26    1
    48    25    50    1
    49    25    51    1
    50    26    27    1
    51    26    52    1
    52    26    53    1
    53    27    28    2
    54    27    29    2
    55    27    30    1
    56    30    54    1
    57    30    55    1
@<TRIPOS>SUBSTRUCTURE
     1 ZINC000494558165        1 TEMP              0 ****  ****    0 ROOT


##########                                Name:    ZINC000523153175
##########                DOCK_Rotatable_Bonds:                   9
##########                         Heavy_Atoms:                  30
##########                    Molecular_Weight:             413.603
##########                DOCK_Rotatable_Bonds:                   9
##########                       Formal_Charge:           0.0499987
##########                     HBond_Acceptors:                   5
##########                        HBond_Donors:                   1
##########                         Heavy_Atoms:                  30
##########                          Grid_Score:          -35.398979
##########                     Grid_vdw_energy:          -34.865646
##########                      Grid_es_energy:           -0.533334
##########           Internal_energy_repulsive:           36.123455

@<TRIPOS>MOLECULE
ZINC000523153175
 69 71 1 0 0
SMALL
USER_CHARGES


@<TRIPOS>ATOM
      1 C1          0.6408    0.9207   43.7540 C.3     1  ZINC000523153175   -0.1500
      2 C2         -0.8065    1.0313   44.2380 C.3     1  ZINC000523153175   -0.0600
      3 C3         -1.5495   -0.2691   43.9256 C.3     1  ZINC000523153175   -0.1400
      4 C4         -0.8216    1.2738   45.7252 C.ar    1  ZINC000523153175   -0.0800
      5 C5         -0.9133    0.2063   46.5987 C.ar    1  ZINC000523153175   -0.1100
      6 C6         -0.9272    0.4287   47.9629 C.ar    1  ZINC000523153175   -0.1100
      7 C7         -0.8490    1.7186   48.4538 C.ar    1  ZINC000523153175   -0.0800
      8 C8         -0.8647    1.9611   49.9411 C.3     1  ZINC000523153175   -0.0300
      9 H9         -1.0085    1.0145   50.4620 H       1  ZINC000523153175    0.0800
     10 C10         0.4658    2.5825   50.3705 C.3     1  ZINC000523153175   -0.1500
     11 C11        -2.0092    2.9145   50.2903 C.3     1  ZINC000523153175   -0.1300
     12 C12        -3.3261    2.2021   50.1196 C.2     1  ZINC000523153175    0.5200
     13 O13        -3.3496    1.0608   49.7101 O.2     1  ZINC000523153175   -0.5300
     14 N14        -4.4780    2.8333   50.4219 N.am    1  ZINC000523153175   -0.6200
     15 C15        -5.7736    2.1537   50.2700 C.3     1  ZINC000523153175    0.1100
     16 C16        -6.5566    2.3005   51.5790 C.3     1  ZINC000523153175    0.0400
     17 N17        -6.6393    3.7221   51.9397 N.3     1  ZINC000523153175   -0.5100
     18 C18        -7.5263    3.9217   53.0936 C.3     1  ZINC000523153175    0.0600
     19 H19        -7.1369    4.7273   53.7161 H       1  ZINC000523153175    0.1100
     20 C20        -8.9278    4.2890   52.6021 C.3     1  ZINC000523153175   -0.1800
     21 C21        -7.5939    2.6509   53.9008 C.2     1  ZINC000523153175    0.5200
     22 O22        -6.7474    2.4181   54.7374 O.2     1  ZINC000523153175   -0.5200
     23 N23        -8.5953    1.7730   53.6929 N.am    1  ZINC000523153175   -0.7200
     24 C24        -8.6620    0.5385   54.4788 C.3     1  ZINC000523153175    0.1400
     25 C25        -9.1986    0.8407   55.8932 C.3     1  ZINC000523153175   -0.1300
     26 C26       -10.7151    0.5411   55.7962 C.3     1  ZINC000523153175   -0.1300
     27 C27       -10.7592   -0.7051   54.8775 C.3     1  ZINC000523153175   -0.1300
     28 C28        -9.6543   -0.4445   53.8330 C.3     1  ZINC000523153175   -0.1300
     29 C29        -5.3070    4.2853   52.1961 C.3     1  ZINC000523153175    0.0400
     30 C30        -4.4724    4.2178   50.9182 C.3     1  ZINC000523153175    0.1200
     31 C31        -0.7560    2.7859   47.5804 C.ar    1  ZINC000523153175   -0.1100
     32 C32        -0.7382    2.5633   46.2162 C.ar    1  ZINC000523153175   -0.1200
     33 H33         0.6518    0.7453   42.6783 H       1  ZINC000523153175    0.0600
     34 H34         1.1701    1.8472   43.9766 H       1  ZINC000523153175    0.0600
     35 H35         1.1315    0.0908   44.2625 H       1  ZINC000523153175    0.0600
     36 H36        -1.2972    1.8613   43.7295 H       1  ZINC000523153175    0.0800
     37 H37        -1.0588   -1.0990   44.4341 H       1  ZINC000523153175    0.0600
     38 H38        -2.5805   -0.1904   44.2705 H       1  ZINC000523153175    0.0600
     39 H39        -1.5385   -0.4445   42.8498 H       1  ZINC000523153175    0.0600
     40 H40        -0.9743   -0.8016   46.2152 H       1  ZINC000523153175    0.1200
     41 H41        -0.9995   -0.4054   48.6454 H       1  ZINC000523153175    0.1200
     42 H42         0.4545    2.7579   51.4463 H       1  ZINC000523153175    0.0800
     43 H43         1.2812    1.9033   50.1217 H       1  ZINC000523153175    0.0600
     44 H44         0.6096    3.5291   49.8495 H       1  ZINC000523153175    0.0500
     45 H45        -1.9055    3.2434   51.3244 H       1  ZINC000523153175    0.0900
     46 H46        -1.9759    3.7800   49.6286 H       1  ZINC000523153175    0.0900
     47 H47        -6.3338    2.6117   49.4548 H       1  ZINC000523153175    0.0800
     48 H48        -5.6101    1.0972   50.0575 H       1  ZINC000523153175    0.0900
     49 H49        -7.5616    1.8992   51.4486 H       1  ZINC000523153175    0.0900
     50 H50        -6.0461    1.7534   52.3715 H       1  ZINC000523153175    0.0400
     51 H51        -9.3172    3.4833   51.9796 H       1  ZINC000523153175    0.0700
     52 H52        -9.5859    4.4369   53.4583 H       1  ZINC000523153175    0.0700
     53 H53        -8.8789    5.2081   52.0182 H       1  ZINC000523153175    0.0700
     54 H54        -9.2717    1.9587   53.0229 H       1  ZINC000523153175    0.4000
     55 H55        -7.6737    0.0831   54.5429 H       1  ZINC000523153175    0.0900
     56 H56        -8.7269    0.1880   56.6277 H       1  ZINC000523153175    0.0700
     57 H57        -9.0320    1.8872   56.1487 H       1  ZINC000523153175    0.0700
     58 H58       -11.1271    0.3114   56.7788 H       1  ZINC000523153175    0.0700
     59 H59       -11.2455    1.3767   55.3395 H       1  ZINC000523153175    0.0700
     60 H60       -10.5396   -1.6075   55.4480 H       1  ZINC000523153175    0.0700
     61 H61       -11.7316   -0.7869   54.3918 H       1  ZINC000523153175    0.0700
     62 H62       -10.0862   -0.0029   52.9348 H       1  ZINC000523153175    0.0700
     63 H63        -9.1477   -1.3771   53.5846 H       1  ZINC000523153175    0.0800
     64 H64        -5.4059    5.3234   52.5132 H       1  ZINC000523153175    0.1000
     65 H65        -4.8140    3.7105   52.9801 H       1  ZINC000523153175    0.0400
     66 H66        -3.4495    4.5276   51.1321 H       1  ZINC000523153175    0.1000
     67 H67        -4.9059    4.8731   50.1627 H       1  ZINC000523153175    0.0800
     68 H68        -0.6946    3.7937   47.9639 H       1  ZINC000523153175    0.1200
     69 H69        -0.6655    3.3973   45.5339 H       1  ZINC000523153175    0.1200
@<TRIPOS>BOND
     1     1     2    1
     2     1    33    1
     3     1    34    1
     4     1    35    1
     5     2     3    1
     6     2     4    1
     7     2    36    1
     8     3    37    1
     9     3    38    1
    10     3    39    1
    11     4    32   ar
    12     4     5   ar
    13     5     6   ar
    14     5    40    1
    15     6     7   ar
    16     6    41    1
    17     7     8    1
    18     7    31   ar
    19     8     9    1
    20     8    10    1
    21     8    11    1
    22    10    42    1
    23    10    43    1
    24    10    44    1
    25    11    12    1
    26    11    45    1
    27    11    46    1
    28    12    13    2
    29    12    14   am
    30    14    30    1
    31    14    15    1
    32    15    16    1
    33    15    47    1
    34    15    48    1
    35    16    17    1
    36    16    49    1
    37    16    50    1
    38    17    18    1
    39    17    29    1
    40    18    19    1
    41    18    20    1
    42    18    21    1
    43    20    51    1
    44    20    52    1
    45    20    53    1
    46    21    22    2
    47    21    23   am
    48    23    24    1
    49    23    54    1
    50    24    28    1
    51    24    25    1
    52    24    55    1
    53    25    26    1
    54    25    56    1
    55    25    57    1
    56    26    27    1
    57    26    58    1
    58    26    59    1
    59    27    28    1
    60    27    60    1
    61    27    61    1
    62    28    62    1
    63    28    63    1
    64    29    30    1
    65    29    64    1
    66    29    65    1
    67    30    66    1
    68    30    67    1
    69    31    32   ar
    70    31    68    1
    71    32    69    1
@<TRIPOS>SUBSTRUCTURE
     1 ZINC000523153175        1 TEMP              0 ****  ****    0 ROOT


##########                                Name:    ZINC000375302598
##########                DOCK_Rotatable_Bonds:                   8
##########                         Heavy_Atoms:                  27
##########                    Molecular_Weight:             368.479
##########                DOCK_Rotatable_Bonds:                   8
##########                       Formal_Charge:               -0.02
##########                     HBond_Acceptors:                   6
##########                        HBond_Donors:                   1
##########                         Heavy_Atoms:                  27
##########                          Grid_Score:          -35.393757
##########                     Grid_vdw_energy:          -34.386837
##########                      Grid_es_energy:           -1.006922
##########           Internal_energy_repulsive:           12.222465

@<TRIPOS>MOLECULE
ZINC000375302598
 55 58 1 0 0
SMALL
USER_CHARGES


@<TRIPOS>ATOM
      1 C1          3.8709    0.3319   42.1672 C.3     1  ZINC000375302598   -0.1500
      2 C2          2.4667    0.3717   41.5610 C.3     1  ZINC000375302598   -0.0300
      3 C3          1.4579    0.6418   42.6475 C.2     1  ZINC000375302598    0.1800
      4 N4          1.5979    1.4694   43.6550 N.2     1  ZINC000375302598   -0.4700
      5 C5          0.4547    1.3807   44.3579 C.2     1  ZINC000375302598    0.1800
      6 C6          0.1196    2.1407   45.6154 C.3     1  ZINC000375302598    0.1500
      7 N7         -0.4337    1.2158   46.6137 N.3     1  ZINC000375302598   -0.5300
      8 C8          0.6050    0.3147   47.1290 C.3     1  ZINC000375302598    0.0500
      9 C9         -0.0326   -0.7250   48.0533 C.3     1  ZINC000375302598   -0.1100
     10 C10        -0.7341   -0.0096   49.2111 C.3     1  ZINC000375302598   -0.1300
     11 C11        -1.7773    0.9582   48.6457 C.3     1  ZINC000375302598    0.1500
     12 H12        -2.5329    0.3978   48.0951 H       1  ZINC000375302598    0.1000
     13 N13        -2.4139    1.6880   49.7448 N.am    1  ZINC000375302598   -0.7300
     14 C14        -3.4993    2.4511   49.5078 C.2     1  ZINC000375302598    0.5200
     15 O15        -3.9481    2.5347   48.3842 O.2     1  ZINC000375302598   -0.5300
     16 C16        -4.1552    3.2004   50.6388 C.3     1  ZINC000375302598   -0.1100
     17 C17        -5.2200    2.3141   51.2880 C.3     1  ZINC000375302598   -0.1200
     18 H18        -4.9062    1.7843   52.1874 H       1  ZINC000375302598    0.1200
     19 C19        -6.2117    1.6076   50.3616 C.3     1  ZINC000375302598   -0.1700
     20 C20        -6.6728    2.7892   51.2186 C.3     1  ZINC000375302598   -0.1100
     21 H21        -6.8700    3.7330   50.7102 H       1  ZINC000375302598    0.1100
     22 C22        -7.5609    2.4885   52.3983 C.ar    1  ZINC000375302598   -0.0500
     23 C23        -8.5197    3.4031   52.7925 C.ar    1  ZINC000375302598   -0.1200
     24 C24        -9.3344    3.1273   53.8747 C.ar    1  ZINC000375302598   -0.1200
     25 C25        -9.1908    1.9368   54.5623 C.ar    1  ZINC000375302598   -0.1300
     26 C26        -8.2326    1.0219   54.1676 C.ar    1  ZINC000375302598   -0.1200
     27 C27        -7.4207    1.2958   53.0828 C.ar    1  ZINC000375302598   -0.1100
     28 C28        -1.0892    1.9491   47.7041 C.3     1  ZINC000375302598    0.0500
     29 N29        -0.3080    0.5196   43.7533 N.2     1  ZINC000375302598   -0.3800
     30 O30         0.2475    0.0877   42.7653 O.3     1  ZINC000375302598    0.0800
     31 H31         3.9216   -0.4597   42.9149 H       1  ZINC000375302598    0.0600
     32 H32         4.6005    0.1367   41.3814 H       1  ZINC000375302598    0.0800
     33 H33         4.0911    1.2903   42.6374 H       1  ZINC000375302598    0.0600
     34 H34         2.4160    1.1634   40.8134 H       1  ZINC000375302598    0.1100
     35 H35         2.2465   -0.5867   41.0909 H       1  ZINC000375302598    0.1000
     36 H36         1.0230    2.6046   46.0112 H       1  ZINC000375302598    0.0700
     37 H37        -0.6157    2.9126   45.3884 H       1  ZINC000375302598    0.1100
     38 H38         1.0932   -0.1908   46.2957 H       1  ZINC000375302598    0.0800
     39 H39         1.3429    0.8920   47.6859 H       1  ZINC000375302598    0.0400
     40 H40        -0.7607   -1.3119   47.4934 H       1  ZINC000375302598    0.0700
     41 H41         0.7408   -1.3842   48.4478 H       1  ZINC000375302598    0.0700
     42 H42        -1.2264   -0.7442   49.8485 H       1  ZINC000375302598    0.0700
     43 H43         0.0001    0.5461   49.7943 H       1  ZINC000375302598    0.0600
     44 H44        -2.0543    1.6220   50.6433 H       1  ZINC000375302598    0.4000
     45 H45        -3.4034    3.4683   51.3813 H       1  ZINC000375302598    0.1000
     46 H46        -4.6227    4.1059   50.2520 H       1  ZINC000375302598    0.1000
     47 H47        -6.1056    1.7741   49.2897 H       1  ZINC000375302598    0.1000
     48 H48        -6.5507    0.6131   50.6517 H       1  ZINC000375302598    0.1000
     49 H49        -8.6319    4.3332   52.2552 H       1  ZINC000375302598    0.1200
     50 H50       -10.0829    3.8421   54.1830 H       1  ZINC000375302598    0.1200
     51 H51        -9.8268    1.7216   55.4083 H       1  ZINC000375302598    0.1200
     52 H52        -8.1201    0.0919   54.7051 H       1  ZINC000375302598    0.1200
     53 H53        -6.6722    0.5809   52.7745 H       1  ZINC000375302598    0.1200
     54 H54        -0.3433    2.5188   48.2585 H       1  ZINC000375302598    0.0400
     55 H55        -1.8314    2.6307   47.2887 H       1  ZINC000375302598    0.0900
@<TRIPOS>BOND
     1     1     2    1
     2     1    31    1
     3     1    32    1
     4     1    33    1
     5     2     3    1
     6     2    34    1
     7     2    35    1
     8     3    30    1
     9     3     4    2
    10     4     5    1
    11     5     6    1
    12     5    29    2
    13     6     7    1
    14     6    36    1
    15     6    37    1
    16     7    28    1
    17     7     8    1
    18     8     9    1
    19     8    38    1
    20     8    39    1
    21     9    10    1
    22     9    40    1
    23     9    41    1
    24    10    11    1
    25    10    42    1
    26    10    43    1
    27    11    12    1
    28    11    13    1
    29    11    28    1
    30    13    14   am
    31    13    44    1
    32    14    15    2
    33    14    16    1
    34    16    17    1
    35    16    45    1
    36    16    46    1
    37    17    18    1
    38    17    20    1
    39    17    19    1
    40    19    20    1
    41    19    47    1
    42    19    48    1
    43    20    21    1
    44    20    22    1
    45    22    27   ar
    46    22    23   ar
    47    23    24   ar
    48    23    49    1
    49    24    25   ar
    50    24    50    1
    51    25    26   ar
    52    25    51    1
    53    26    27   ar
    54    26    52    1
    55    27    53    1
    56    28    54    1
    57    28    55    1
    58    29    30    1
@<TRIPOS>SUBSTRUCTURE
     1 ZINC000375302598        1 TEMP              0 ****  ****    0 ROOT


##########                                Name:    ZINC001065334255
##########                DOCK_Rotatable_Bonds:                   7
##########                         Heavy_Atoms:                  23
##########                    Molecular_Weight:             346.448
##########                DOCK_Rotatable_Bonds:                   7
##########                       Formal_Charge:        -5.81145e-07
##########                     HBond_Acceptors:                   8
##########                        HBond_Donors:                   1
##########                         Heavy_Atoms:                  23
##########                          Grid_Score:          -35.393326
##########                     Grid_vdw_energy:          -34.874741
##########                      Grid_es_energy:           -0.518585
##########           Internal_energy_repulsive:           21.177912

@<TRIPOS>MOLECULE
ZINC001065334255
 49 50 1 0 0
SMALL
USER_CHARGES


@<TRIPOS>ATOM
      1 C1         -9.4394    1.6083   54.6631 C.3     1  ZINC001065334255   -0.1500
      2 C2         -8.3940    1.7946   53.5617 C.3     1  ZINC001065334255   -0.0800
      3 C3         -7.0449    2.1445   54.1930 C.3     1  ZINC001065334255   -0.1500
      4 C4         -8.2610    0.4982   52.7600 C.3     1  ZINC001065334255   -0.1400
      5 C5         -7.2339    0.6829   51.6729 C.2     1  ZINC001065334255    0.5100
      6 O6         -6.5651   -0.2593   51.3040 O.2     1  ZINC001065334255   -0.5300
      7 N7         -7.0583    1.8951   51.1105 N.am    1  ZINC001065334255   -0.7300
      8 C8         -6.0609    2.0741   50.0524 C.3     1  ZINC001065334255    0.1300
      9 C9         -4.7053    2.4045   50.6802 C.3     1  ZINC001065334255    0.0700
     10 H10        -4.4424    1.6342   51.4052 H       1  ZINC001065334255    0.0700
     11 C11        -3.6345    2.4633   49.5848 C.3     1  ZINC001065334255    0.0800
     12 N12        -2.3863    2.9635   50.1823 N.am    1  ZINC001065334255   -0.6100
     13 C13        -1.2211    2.3100   50.0040 C.2     1  ZINC001065334255    0.5400
     14 O14        -0.2028    2.7385   50.5043 O.2     1  ZINC001065334255   -0.5200
     15 C15        -1.1837    1.0468   49.1831 C.3     1  ZINC001065334255   -0.1100
     16 H16        -2.0165    0.3991   49.4570 H       1  ZINC001065334255    0.1200
     17 C17         0.1502    0.3128   49.4060 C.3     1  ZINC001065334255   -0.1000
     18 C18         0.3064   -0.7698   48.3195 C.3     1  ZINC001065334255   -0.5900
     19 S19        -0.6381   -0.1432   46.8838 S.o2    1  ZINC001065334255    2.3900
     20 O20         0.2630    0.1931   45.8378 O.2     1  ZINC001065334255   -0.9300
     21 O21        -1.7317   -1.0126   46.6238 O.2     1  ZINC001065334255   -0.9300
     22 C22        -1.2540    1.3925   47.6733 C.3     1  ZINC001065334255   -0.5900
     23 C23        -2.4476    4.1987   50.9798 C.3     1  ZINC001065334255    0.0600
     24 C24        -3.5762    4.0553   52.0073 C.3     1  ZINC001065334255    0.0500
     25 O25        -4.7791    3.6725   51.3363 O.3     1  ZINC001065334255   -0.3700
     26 H26        -9.5341    2.5318   55.2342 H       1  ZINC001065334255    0.0600
     27 H27       -10.4006    1.3590   54.2133 H       1  ZINC001065334255    0.0500
     28 H28        -9.1284    0.8012   55.3264 H       1  ZINC001065334255    0.0600
     29 H29        -8.7049    2.6017   52.8984 H       1  ZINC001065334255    0.0800
     30 H30        -6.7339    1.3374   54.8563 H       1  ZINC001065334255    0.0500
     31 H31        -6.3001    2.2772   53.4083 H       1  ZINC001065334255    0.0700
     32 H32        -7.1396    3.0680   54.7641 H       1  ZINC001065334255    0.0500
     33 H33        -7.9476   -0.3083   53.4228 H       1  ZINC001065334255    0.0900
     34 H34        -9.2227    0.2476   52.3124 H       1  ZINC001065334255    0.0900
     35 H35        -7.5923    2.6489   51.4064 H       1  ZINC001065334255    0.4000
     36 H36        -5.9782    1.1555   49.4718 H       1  ZINC001065334255    0.0900
     37 H37        -6.3673    2.8908   49.3989 H       1  ZINC001065334255    0.0800
     38 H38        -3.4720    1.4659   49.1762 H       1  ZINC001065334255    0.1100
     39 H39        -3.9576    3.1374   48.7915 H       1  ZINC001065334255    0.0900
     40 H40         0.9749    1.0223   49.3375 H       1  ZINC001065334255    0.1000
     41 H41         0.1517   -0.1537   50.3911 H       1  ZINC001065334255    0.1000
     42 H42         1.3570   -0.8934   48.0567 H       1  ZINC001065334255    0.1500
     43 H43        -0.1121   -1.7153   48.6644 H       1  ZINC001065334255    0.1400
     44 H44        -2.2806    1.5986   47.3699 H       1  ZINC001065334255    0.1400
     45 H45        -0.6038    2.2354   47.4394 H       1  ZINC001065334255    0.1500
     46 H46        -1.4992    4.3505   51.4950 H       1  ZINC001065334255    0.1000
     47 H47        -2.6512    5.0475   50.3269 H       1  ZINC001065334255    0.0900
     48 H48        -3.3088    3.2916   52.7375 H       1  ZINC001065334255    0.0600
     49 H49        -3.7297    5.0076   52.5148 H       1  ZINC001065334255    0.1100
@<TRIPOS>BOND
     1     1     2    1
     2     1    26    1
     3     1    27    1
     4     1    28    1
     5     2     3    1
     6     2     4    1
     7     2    29    1
     8     3    30    1
     9     3    31    1
    10     3    32    1
    11     4     5    1
    12     4    33    1
    13     4    34    1
    14     5     6    2
    15     5     7   am
    16     7     8    1
    17     7    35    1
    18     8     9    1
    19     8    36    1
    20     8    37    1
    21     9    10    1
    22     9    25    1
    23     9    11    1
    24    11    12    1
    25    11    38    1
    26    11    39    1
    27    12    13   am
    28    12    23    1
    29    13    14    2
    30    13    15    1
    31    15    16    1
    32    15    22    1
    33    15    17    1
    34    17    18    1
    35    17    40    1
    36    17    41    1
    37    18    19    1
    38    18    42    1
    39    18    43    1
    40    19    20    2
    41    19    21    2
    42    19    22    1
    43    22    44    1
    44    22    45    1
    45    23    24    1
    46    23    46    1
    47    23    47    1
    48    24    25    1
    49    24    48    1
    50    24    49    1
@<TRIPOS>SUBSTRUCTURE
     1 ZINC001065334255        1 TEMP              0 ****  ****    0 ROOT


##########                                Name:    ZINC000451019064
##########                DOCK_Rotatable_Bonds:                   8
##########                         Heavy_Atoms:                  23
##########                    Molecular_Weight:             346.534
##########                DOCK_Rotatable_Bonds:                   8
##########                       Formal_Charge:          -0.0200008
##########                     HBond_Acceptors:                   6
##########                        HBond_Donors:                   1
##########                         Heavy_Atoms:                  23
##########                          Grid_Score:          -35.369820
##########                     Grid_vdw_energy:          -34.267498
##########                      Grid_es_energy:           -1.102322
##########           Internal_energy_repulsive:            7.825189

@<TRIPOS>MOLECULE
ZINC000451019064
 57 58 1 0 0
SMALL
USER_CHARGES


@<TRIPOS>ATOM
      1 C1         -1.6610    0.4511   44.3511 C.3     1  ZINC000451019064   -0.1500
      2 C2         -1.1877    0.2423   45.7910 C.3     1  ZINC000451019064    0.0900
      3 H3         -1.5775   -0.7030   46.1688 H       1  ZINC000451019064    0.0700
      4 C4         -1.6944    1.3910   46.6672 C.3     1  ZINC000451019064    0.0200
      5 N5         -1.1730    1.2263   48.0319 N.3     1  ZINC000451019064   -0.5400
      6 C6         -1.6825    2.2789   48.9208 C.3     1  ZINC000451019064    0.0600
      7 C7         -3.0351    1.8514   49.4944 C.3     1  ZINC000451019064   -0.1300
      8 C8         -3.6472    3.0143   50.2779 C.3     1  ZINC000451019064    0.1100
      9 N9         -4.5583    2.4897   51.2982 N.am    1  ZINC000451019064   -1.1200
     10 S10        -6.1154    2.0964   50.8944 S.o2    1  ZINC000451019064    2.6100
     11 O11        -6.6999    3.3324   50.5070 O.2     1  ZINC000451019064   -0.9600
     12 O12        -5.9780    1.0285   49.9671 O.2     1  ZINC000451019064   -0.9500
     13 C13        -6.8489    1.5035   52.4439 C.3     1  ZINC000451019064   -0.6300
     14 C14        -6.5964    2.5274   53.5524 C.3     1  ZINC000451019064   -0.1100
     15 C15        -7.0877    1.9651   54.8877 C.3     1  ZINC000451019064   -0.0800
     16 C16        -6.6148    2.8700   56.0271 C.3     1  ZINC000451019064   -0.1200
     17 C17        -7.1062    2.3077   57.3626 C.3     1  ZINC000451019064   -0.1200
     18 C18        -8.6350    2.2485   57.3594 C.3     1  ZINC000451019064   -0.1200
     19 C19        -9.1080    1.3436   56.2200 C.3     1  ZINC000451019064   -0.1200
     20 C20        -8.6166    1.9059   54.8845 C.3     1  ZINC000451019064   -0.1200
     21 C21         0.2971    1.2052   48.0289 C.3     1  ZINC000451019064    0.0200
     22 C22         0.7838    0.0584   47.1389 C.3     1  ZINC000451019064    0.0900
     23 H23         0.4520   -0.8922   47.5563 H       1  ZINC000451019064    0.0700
     24 C24         2.3120    0.0798   47.0682 C.3     1  ZINC000451019064   -0.1500
     25 O25         0.2418    0.2171   45.8250 O.3     1  ZINC000451019064   -0.3800
     26 H26        -1.2987   -0.3662   43.7274 H       1  ZINC000451019064    0.0700
     27 H27        -2.7505    0.4717   44.3261 H       1  ZINC000451019064    0.0700
     28 H28        -1.2710    1.3964   43.9739 H       1  ZINC000451019064    0.0600
     29 H29        -1.3495    2.3405   46.2579 H       1  ZINC000451019064    0.0400
     30 H30        -2.7841    1.3780   46.6900 H       1  ZINC000451019064    0.0900
     31 H31        -0.9767    2.4394   49.7357 H       1  ZINC000451019064    0.0400
     32 H32        -1.8031    3.2038   48.3568 H       1  ZINC000451019064    0.0800
     33 H33        -3.7027    1.5707   48.6799 H       1  ZINC000451019064    0.0800
     34 H34        -2.8947    0.9992   50.1594 H       1  ZINC000451019064    0.0800
     35 H35        -2.8535    3.5861   50.7589 H       1  ZINC000451019064    0.0800
     36 H36        -4.1990    3.6613   49.5960 H       1  ZINC000451019064    0.0700
     37 H37        -4.2495    2.3726   52.2102 H       1  ZINC000451019064    0.4200
     38 H38        -7.9225    1.3701   52.3102 H       1  ZINC000451019064    0.1300
     39 H39        -6.3960    0.5509   52.7191 H       1  ZINC000451019064    0.1400
     40 H40        -5.5286    2.7368   53.6171 H       1  ZINC000451019064    0.0800
     41 H41        -7.1341    3.4481   53.3259 H       1  ZINC000451019064    0.0800
     42 H42        -6.6856    0.9620   55.0296 H       1  ZINC000451019064    0.0800
     43 H43        -5.5256    2.9122   56.0294 H       1  ZINC000451019064    0.0600
     44 H44        -7.0169    3.8731   55.8852 H       1  ZINC000451019064    0.0700
     45 H45        -6.7040    1.3046   57.5044 H       1  ZINC000451019064    0.0600
     46 H46        -6.7692    2.9524   58.1743 H       1  ZINC000451019064    0.0600
     47 H47        -8.9851    1.8479   58.3107 H       1  ZINC000451019064    0.0600
     48 H48        -9.0371    3.2516   57.2175 H       1  ZINC000451019064    0.0600
     49 H49        -8.7059    0.3405   56.3618 H       1  ZINC000451019064    0.0600
     50 H50       -10.1972    1.3014   56.2177 H       1  ZINC000451019064    0.0600
     51 H51        -9.0187    2.9090   54.7426 H       1  ZINC000451019064    0.0700
     52 H52        -8.9536    1.2612   54.0728 H       1  ZINC000451019064    0.0600
     53 H53         0.6738    2.1517   47.6412 H       1  ZINC000451019064    0.0400
     54 H54         0.6611    1.0566   49.0454 H       1  ZINC000451019064    0.0900
     55 H55         2.7238   -0.0386   48.0705 H       1  ZINC000451019064    0.0700
     56 H56         2.6579   -0.7369   46.4345 H       1  ZINC000451019064    0.0700
     57 H57         2.6431    1.0300   46.6493 H       1  ZINC000451019064    0.0600
@<TRIPOS>BOND
     1     1     2    1
     2     1    26    1
     3     1    27    1
     4     1    28    1
     5     2     3    1
     6     2    25    1
     7     2     4    1
     8     4     5    1
     9     4    29    1
    10     4    30    1
    11     5     6    1
    12     5    21    1
    13     6     7    1
    14     6    31    1
    15     6    32    1
    16     7     8    1
    17     7    33    1
    18     7    34    1
    19     8     9    1
    20     8    35    1
    21     8    36    1
    22     9    10   am
    23     9    37    1
    24    10    11    2
    25    10    12    2
    26    10    13    1
    27    13    14    1
    28    13    38    1
    29    13    39    1
    30    14    15    1
    31    14    40    1
    32    14    41    1
    33    15    20    1
    34    15    16    1
    35    15    42    1
    36    16    17    1
    37    16    43    1
    38    16    44    1
    39    17    18    1
    40    17    45    1
    41    17    46    1
    42    18    19    1
    43    18    47    1
    44    18    48    1
    45    19    20    1
    46    19    49    1
    47    19    50    1
    48    20    51    1
    49    20    52    1
    50    21    22    1
    51    21    53    1
    52    21    54    1
    53    22    23    1
    54    22    24    1
    55    22    25    1
    56    24    55    1
    57    24    56    1
    58    24    57    1
@<TRIPOS>SUBSTRUCTURE
     1 ZINC000451019064        1 TEMP              0 ****  ****    0 ROOT


##########                                Name:    ZINC000185598309
##########                DOCK_Rotatable_Bonds:                  14
##########                         Heavy_Atoms:                  25
##########                    Molecular_Weight:             347.457
##########                DOCK_Rotatable_Bonds:                  14
##########                       Formal_Charge:               -0.02
##########                     HBond_Acceptors:                   6
##########                        HBond_Donors:                   4
##########                         Heavy_Atoms:                  25
##########                          Grid_Score:          -35.358871
##########                     Grid_vdw_energy:          -34.345650
##########                      Grid_es_energy:           -1.013222
##########           Internal_energy_repulsive:           12.786220

@<TRIPOS>MOLECULE
ZINC000185598309
 54 54 1 0 0
SMALL
USER_CHARGES


@<TRIPOS>ATOM
      1 C1         -1.9247   -0.0404   44.1487 C.3     1  ZINC000185598309   -0.1300
      2 C2         -0.6040    0.5584   44.5591 C.2     1  ZINC000185598309   -0.1600
      3 C3         -0.2980    0.6619   45.8286 C.2     1  ZINC000185598309   -0.1600
      4 C4         -1.2658    0.1807   46.8788 C.3     1  ZINC000185598309   -0.0900
      5 C5         -0.8582    0.7409   48.2429 C.3     1  ZINC000185598309    0.1700
      6 H6         -0.5501    1.7805   48.1315 H       1  ZINC000185598309    0.1000
      7 C7          0.3055   -0.0789   48.8038 C.3     1  ZINC000185598309    0.0600
      8 O8         -0.1382   -1.4087   49.0804 O.3     1  ZINC000185598309   -0.5700
      9 N9         -1.9966    0.6647   49.1619 N.am    1  ZINC000185598309   -0.7300
     10 C10        -2.9153    1.6508   49.1799 C.2     1  ZINC000185598309    0.7000
     11 O11        -2.8000    2.6027   48.4324 O.2     1  ZINC000185598309   -0.5900
     12 N12        -3.9617    1.5814   50.0265 N.am    1  ZINC000185598309   -0.7400
     13 C13        -4.9593    2.6542   50.0472 C.3     1  ZINC000185598309    0.1800
     14 C14        -5.5215    2.7904   51.4389 C.ar    1  ZINC000185598309   -0.0900
     15 C15        -5.3168    3.9549   52.1554 C.ar    1  ZINC000185598309   -0.1100
     16 C16        -5.8306    4.0837   53.4330 C.ar    1  ZINC000185598309   -0.1000
     17 C17        -6.5504    3.0488   53.9968 C.ar    1  ZINC000185598309   -0.1100
     18 C18        -6.7581    1.8778   53.2795 C.ar    1  ZINC000185598309    0.1400
     19 N19        -7.4874    0.8275   53.8476 N.am    1  ZINC000185598309   -0.6800
     20 C20        -8.8236    0.9340   53.9889 C.2     1  ZINC000185598309    0.5200
     21 O21        -9.3937    1.9402   53.6236 O.2     1  ZINC000185598309   -0.5200
     22 C22        -9.6091   -0.1972   54.6009 C.3     1  ZINC000185598309   -0.1100
     23 H23        -8.9407   -1.0326   54.8094 H       1  ZINC000185598309    0.1000
     24 C24       -10.6990   -0.6473   53.6260 C.3     1  ZINC000185598309   -0.1500
     25 C25       -10.2549    0.2770   55.9044 C.3     1  ZINC000185598309   -0.1100
     26 C26       -10.4497   -0.9172   56.8408 C.3     1  ZINC000185598309   -0.1600
     27 C27        -6.2454    1.7537   51.9950 C.ar    1  ZINC000185598309   -0.1300
     28 H28        -2.0003   -0.0427   43.0613 H       1  ZINC000185598309    0.0600
     29 H29        -1.9908   -1.0631   44.5196 H       1  ZINC000185598309    0.0600
     30 H30        -2.7380    0.5518   44.5681 H       1  ZINC000185598309    0.0600
     31 H31         0.0903    0.9022   43.8065 H       1  ZINC000185598309    0.1100
     32 H32         0.6479    1.0923   46.1227 H       1  ZINC000185598309    0.1100
     33 H33        -2.2706    0.5227   46.6309 H       1  ZINC000185598309    0.0900
     34 H34        -1.2513   -0.9087   46.9142 H       1  ZINC000185598309    0.0800
     35 H35         1.1134   -0.1100   48.0727 H       1  ZINC000185598309    0.0500
     36 H36         0.6652    0.3829   49.7232 H       1  ZINC000185598309    0.0500
     37 H37         0.5717   -2.0166   49.3288 H       1  ZINC000185598309    0.3800
     38 H38        -2.0893   -0.0953   49.7574 H       1  ZINC000185598309    0.4000
     39 H39        -4.0543    0.8214   50.6221 H       1  ZINC000185598309    0.4000
     40 H40        -4.4901    3.5925   49.7515 H       1  ZINC000185598309    0.0700
     41 H41        -5.7641    2.4154   49.3520 H       1  ZINC000185598309    0.0800
     42 H42        -4.7542    4.7657   51.7167 H       1  ZINC000185598309    0.1300
     43 H43        -5.6684    4.9943   53.9904 H       1  ZINC000185598309    0.1300
     44 H44        -6.9511    3.1498   54.9946 H       1  ZINC000185598309    0.1300
     45 H45        -7.0315    0.0227   54.1398 H       1  ZINC000185598309    0.4100
     46 H46       -10.2389   -0.9850   52.6973 H       1  ZINC000185598309    0.0600
     47 H47       -11.2672   -1.4654   54.0685 H       1  ZINC000185598309    0.0800
     48 H48       -11.3673    0.1881   53.4174 H       1  ZINC000185598309    0.0600
     49 H49        -9.6087    1.0126   56.3833 H       1  ZINC000185598309    0.0700
     50 H50       -11.2222    0.7298   55.6868 H       1  ZINC000185598309    0.0700
     51 H51       -11.0958   -1.6529   56.3618 H       1  ZINC000185598309    0.0600
     52 H52        -9.4824   -1.3700   57.0583 H       1  ZINC000185598309    0.0600
     53 H53       -10.9098   -0.5794   57.7694 H       1  ZINC000185598309    0.0600
     54 H54        -6.4052    0.8444   51.4346 H       1  ZINC000185598309    0.1300
@<TRIPOS>BOND
     1     1     2    1
     2     1    28    1
     3     1    29    1
     4     1    30    1
     5     2     3    2
     6     2    31    1
     7     3     4    1
     8     3    32    1
     9     4     5    1
    10     4    33    1
    11     4    34    1
    12     5     6    1
    13     5     7    1
    14     5     9    1
    15     7     8    1
    16     7    35    1
    17     7    36    1
    18     8    37    1
    19     9    10   am
    20     9    38    1
    21    10    11    2
    22    10    12   am
    23    12    13    1
    24    12    39    1
    25    13    14    1
    26    13    40    1
    27    13    41    1
    28    14    27   ar
    29    14    15   ar
    30    15    16   ar
    31    15    42    1
    32    16    17   ar
    33    16    43    1
    34    17    18   ar
    35    17    44    1
    36    18    19    1
    37    18    27   ar
    38    19    20   am
    39    19    45    1
    40    20    21    2
    41    20    22    1
    42    22    23    1
    43    22    24    1
    44    22    25    1
    45    24    46    1
    46    24    47    1
    47    24    48    1
    48    25    26    1
    49    25    49    1
    50    25    50    1
    51    26    51    1
    52    26    52    1
    53    26    53    1
    54    27    54    1
@<TRIPOS>SUBSTRUCTURE
     1 ZINC000185598309        1 TEMP              0 ****  ****    0 ROOT


##########                                Name:    ZINC000957079511
##########                DOCK_Rotatable_Bonds:                   8
##########                         Heavy_Atoms:                  25
##########                    Molecular_Weight:             362.453
##########                DOCK_Rotatable_Bonds:                   8
##########                       Formal_Charge:        -4.32134e-07
##########                     HBond_Acceptors:                   8
##########                        HBond_Donors:                   2
##########                         Heavy_Atoms:                  25
##########                          Grid_Score:          -35.345684
##########                     Grid_vdw_energy:          -34.677105
##########                      Grid_es_energy:           -0.668579
##########           Internal_energy_repulsive:           14.061203

@<TRIPOS>MOLECULE
ZINC000957079511
 47 49 1 0 0
SMALL
USER_CHARGES


@<TRIPOS>ATOM
      1 C1         -1.8871    1.0275   45.0695 C.3     1  ZINC000957079511   -0.0700
      2 C2         -1.4263    0.3790   46.3495 C.2     1  ZINC000957079511    0.0300
      3 C3         -1.6989    0.8078   47.5965 C.2     1  ZINC000957079511   -0.0200
      4 C4         -2.5157    2.0173   47.9722 C.3     1  ZINC000957079511   -0.0600
      5 C5         -3.2226    1.7602   49.2781 C.2     1  ZINC000957079511    0.5100
      6 O6         -2.6668    1.1341   50.1555 O.2     1  ZINC000957079511   -0.5200
      7 N7         -4.4725    2.2260   49.4708 N.am    1  ZINC000957079511   -0.7200
      8 C8         -5.1604    1.9746   50.7397 C.3     1  ZINC000957079511    0.1400
      9 H9         -4.4449    1.8662   51.5547 H       1  ZINC000957079511    0.1100
     10 C10        -6.0777    0.7305   50.6369 C.3     1  ZINC000957079511    0.0800
     11 N11        -7.1121    0.9383   51.6666 N.am    1  ZINC000957079511   -0.6200
     12 C12        -7.8338   -0.0319   52.2618 C.2     1  ZINC000957079511    0.5400
     13 O13        -7.6565   -1.1927   51.9580 O.2     1  ZINC000957079511   -0.5100
     14 C14        -8.8612    0.3254   53.3048 C.3     1  ZINC000957079511    0.0500
     15 O15        -8.2202    0.4755   54.5731 O.3     1  ZINC000957079511   -0.2800
     16 C16        -9.0273    0.6335   55.6591 C.2     1  ZINC000957079511    0.1200
     17 C17       -10.3604    0.6482   55.5690 C.2     1  ZINC000957079511   -0.3300
     18 S18       -11.0577    0.8712   57.1681 S.3     1  ZINC000957079511    0.1300
     19 C19        -9.4562    0.9339   57.8921 C.2     1  ZINC000957079511   -0.1800
     20 C20        -8.5289    0.7855   56.9441 C.2     1  ZINC000957079511   -0.1400
     21 C21        -7.2252    2.3789   51.9374 C.3     1  ZINC000957079511    0.1100
     22 C22        -6.1878    3.0959   51.0470 C.3     1  ZINC000957079511   -0.1100
     23 H23        -6.6512    3.4559   50.1283 H       1  ZINC000957079511    0.0900
     24 C24        -5.5279    4.2489   51.8059 C.3     1  ZINC000957079511   -0.1400
     25 N25        -1.0920   -0.0663   48.4575 N.pl3   1  ZINC000957079511   -0.5600
     26 C26        -0.4690   -0.9995   47.7059 C.2     1  ZINC000957079511    0.2000
     27 N27        -0.6775   -0.7296   46.4463 N.2     1  ZINC000957079511   -0.4900
     28 H28        -2.8502    0.6093   44.7766 H       1  ZINC000957079511    0.0700
     29 H29        -1.9890    2.1018   45.2226 H       1  ZINC000957079511    0.0600
     30 H30        -1.1556    0.8402   44.2835 H       1  ZINC000957079511    0.0700
     31 H31        -1.8589    2.8807   48.0784 H       1  ZINC000957079511    0.1000
     32 H32        -3.2520    2.2146   47.1931 H       1  ZINC000957079511    0.1200
     33 H33        -4.9167    2.7279   48.7695 H       1  ZINC000957079511    0.4000
     34 H34        -6.5327    0.6755   49.6479 H       1  ZINC000957079511    0.0800
     35 H35        -5.5112   -0.1768   50.8458 H       1  ZINC000957079511    0.0800
     36 H36        -9.3470    1.2617   53.0302 H       1  ZINC000957079511    0.0900
     37 H37        -9.6073   -0.4668   53.3662 H       1  ZINC000957079511    0.0900
     38 H38       -10.9238    0.5402   54.6538 H       1  ZINC000957079511    0.1700
     39 H39        -9.2541    1.0678   58.9445 H       1  ZINC000957079511    0.1800
     40 H40        -7.4707    0.7912   57.1603 H       1  ZINC000957079511    0.1500
     41 H41        -8.2288    2.7248   51.6899 H       1  ZINC000957079511    0.0800
     42 H42        -7.0111    2.5766   52.9876 H       1  ZINC000957079511    0.0800
     43 H43        -5.0456    3.8636   52.7043 H       1  ZINC000957079511    0.0600
     44 H44        -4.7821    4.7238   51.1683 H       1  ZINC000957079511    0.0600
     45 H45        -6.2857    4.9806   52.0856 H       1  ZINC000957079511    0.0700
     46 H46        -1.1064   -0.0234   49.4264 H       1  ZINC000957079511    0.4200
     47 H47         0.1034   -1.8333   48.0847 H       1  ZINC000957079511    0.2100
@<TRIPOS>BOND
     1     1     2    1
     2     1    28    1
     3     1    29    1
     4     1    30    1
     5     2    27    1
     6     2     3    2
     7     3     4    1
     8     3    25    1
     9     4     5    1
    10     4    31    1
    11     4    32    1
    12     5     6    2
    13     5     7   am
    14     7     8    1
    15     7    33    1
    16     8     9    1
    17     8    22    1
    18     8    10    1
    19    10    11    1
    20    10    34    1
    21    10    35    1
    22    11    12   am
    23    11    21    1
    24    12    13    2
    25    12    14    1
    26    14    15    1
    27    14    36    1
    28    14    37    1
    29    15    16    1
    30    16    20    1
    31    16    17    2
    32    17    18    1
    33    17    38    1
    34    18    19    1
    35    19    20    2
    36    19    39    1
    37    20    40    1
    38    21    22    1
    39    21    41    1
    40    21    42    1
    41    22    23    1
    42    22    24    1
    43    24    43    1
    44    24    44    1
    45    24    45    1
    46    25    26    1
    47    25    46    1
    48    26    27    2
    49    26    47    1
@<TRIPOS>SUBSTRUCTURE
     1 ZINC000957079511        1 TEMP              0 ****  ****    0 ROOT


##########                                Name:     oleObject79.pdb
##########                DOCK_Rotatable_Bonds:                  12
##########                         Heavy_Atoms:                  53
##########                    Molecular_Weight:             725.376
##########                DOCK_Rotatable_Bonds:                  12
##########                       Formal_Charge:          0.00050066
##########                     HBond_Acceptors:                   8
##########                        HBond_Donors:                   4
##########                         Heavy_Atoms:                  53
##########                          Grid_Score:          -35.343658
##########                     Grid_vdw_energy:          -35.102879
##########                      Grid_es_energy:           -0.240780
##########           Internal_energy_repulsive:           95.660004

@<TRIPOS>MOLECULE
oleObject79.pdb
 102 108 1 0 0
SMALL
NO_CHARGES


@<TRIPOS>ATOM
      1 C          -8.7416    3.4958   63.6617 C.ar    1  UNL        -0.0620
      2 C          -9.3871    2.2724   63.4350 C.ar    1  UNL        -0.0590
      3 C          -9.4794    1.7349   62.1362 C.ar    1  UNL        -0.0456
      4 C          -8.9099    2.4378   61.0414 C.ar    1  UNL        -0.0185
      5 C          -8.2638    3.6681   61.2907 C.ar    1  UNL        -0.0565
      6 C          -8.1794    4.1947   62.5874 C.ar    1  UNL        -0.0619
      7 C          -8.9314    1.8742   59.6061 C.3     1  UNL         0.0931
      8 C          -9.1190    0.3487   59.5067 C.ar    1  UNL         0.0683
      9 C         -10.3772   -0.2206   59.1829 C.ar    1  UNL        -0.0272
     10 C         -10.4802   -1.6225   59.1082 C.ar    1  UNL        -0.0559
     11 C          -9.3434   -2.4060   59.3523 C.ar    1  UNL        -0.0435
     12 C          -8.1379   -1.7607   59.6638 C.ar    1  UNL         0.0272
     13 N          -8.0301   -0.4212   59.7388 N.ar    1  UNL        -0.2587
     14 C         -11.6135    0.6321   58.9162 C.3     1  UNL        -0.0379
     15 N          -9.8334    2.6685   58.7259 N.am    1  UNL        -0.2918
     16 C          -9.7266    2.5761   57.3364 C.2     1  UNL         0.2179
     17 O          -8.7185    2.1123   56.8298 O.2     1  UNL        -0.2772
     18 C         -10.7106    3.4424   56.5048 C.3     1  UNL         0.0361
     19 C         -11.4271    2.6445   55.3779 C.3     1  UNL        -0.0412
     20 C         -10.5112    2.3061   54.1693 C.3     1  UNL        -0.0453
     21 C          -9.7397    3.5268   53.5848 C.3     1  UNL        -0.0139
     22 C          -8.6321    2.9982   52.6316 C.3     1  UNL         0.0171
     23 N          -7.9303    4.1128   51.9633 N.pl3   1  UNL        -0.3290
     24 C          -8.8027    4.9513   51.1180 C.3     1  UNL         0.0115
     25 C          -9.9742    5.5275   51.9479 C.3     1  UNL        -0.0368
     26 C         -10.7091    4.4257   52.7521 C.3     1  UNL        -0.0446
     27 C          -6.5345    4.2049   51.9571 C.ar    1  UNL         0.0476
     28 C          -5.9191    5.2908   52.6100 C.ar    1  UNL        -0.0375
     29 C          -4.5238    5.4404   52.6045 C.ar    1  UNL        -0.0388
     30 C          -3.7105    4.5194   51.9264 C.ar    1  UNL         0.0318
     31 C          -4.3157    3.4222   51.2866 C.ar    1  UNL        -0.0202
     32 C          -5.7120    3.2643   51.2929 C.ar    1  UNL         0.0636
     33 CL         -6.3649    1.9059   50.3931 Cl      1  UNL        -0.0822
     34 N          -2.3290    4.7004   51.9423 N.pl3   1  UNL        -0.3149
     35 C          -1.2926    3.9540   51.3841 C.ar    1  UNL         0.0302
     36 C          -0.1630    3.5650   52.1276 C.ar    1  UNL        -0.0402
     37 C           0.8486    2.7905   51.5378 C.ar    1  UNL        -0.0525
     38 C           0.7627    2.3715   50.1868 C.ar    1  UNL        -0.0182
     39 C          -0.3903    2.7565   49.4585 C.ar    1  UNL        -0.0525
     40 C          -1.4040    3.5271   50.0511 C.ar    1  UNL        -0.0402
     41 C           1.8439    1.5437   49.5546 C.ar    1  UNL        -0.0177
     42 C           2.9934    1.1512   50.2868 C.ar    1  UNL        -0.0439
     43 C           4.0207    0.3754   49.7066 C.ar    1  UNL         0.0111
     44 C           3.8921   -0.0153   48.3576 C.ar    1  UNL        -0.0518
     45 C           2.7646    0.3589   47.6128 C.ar    1  UNL        -0.0609
     46 C           1.7520    1.1282   48.2038 C.ar    1  UNL        -0.0543
     47 C           5.1410   -0.0011   50.4544 C.2     1  UNL         0.1014
     48 N           6.0894   -0.7079   49.9592 N.3     1  UNL        -0.2892
     49 N           5.2648    0.3631   51.7380 N.3     1  UNL        -0.2870
     50 C          -9.0615    4.3159   54.7479 C.3     1  UNL        -0.0453
     51 C         -10.0302    4.6927   55.8892 C.3     1  UNL        -0.0412
     52 C         -10.8551    3.5238   59.3686 C.3     1  UNL         0.0037
     53 C         -10.1765    0.3892   61.9667 C.3     1  UNL        -0.0394
     54 H          -8.6731    3.8997   64.6671 H       1  UNL         0.0623
     55 H          -9.8134    1.7352   64.2774 H       1  UNL         0.0626
     56 H          -7.8194    4.2246   60.4722 H       1  UNL         0.0627
     57 H          -7.6760    5.1418   62.7581 H       1  UNL         0.0623
     58 H          -7.9278    2.0257   59.2055 H       1  UNL         0.0626
     59 H         -11.4257   -2.0984   58.8638 H       1  UNL         0.0627
     60 H          -9.3941   -3.4895   59.3000 H       1  UNL         0.0639
     61 H          -7.2308   -2.3317   59.8586 H       1  UNL         0.0840
     62 H         -11.8789    1.2321   59.7950 H       1  UNL         0.0280
     63 H         -12.4853    0.0136   58.6694 H       1  UNL         0.0280
     64 H         -11.4512    1.3157   58.0738 H       1  UNL         0.0280
     65 H         -11.4879    3.7842   57.1990 H       1  UNL         0.0401
     66 H         -12.2790    3.2351   55.0177 H       1  UNL         0.0275
     67 H         -11.8514    1.7193   55.7890 H       1  UNL         0.0275
     68 H         -11.1141    1.8334   53.3832 H       1  UNL         0.0273
     69 H          -9.7864    1.5426   54.4754 H       1  UNL         0.0273
     70 H          -9.0824    2.3455   51.8724 H       1  UNL         0.0474
     71 H          -7.9211    2.3926   53.2089 H       1  UNL         0.0474
     72 H          -9.2105    4.3372   50.3049 H       1  UNL         0.0468
     73 H          -8.2361    5.7700   50.6575 H       1  UNL         0.0468
     74 H         -10.6834    6.0313   51.2795 H       1  UNL         0.0283
     75 H          -9.5969    6.2953   52.6335 H       1  UNL         0.0283
     76 H         -11.2526    3.7945   52.0367 H       1  UNL         0.0273
     77 H         -11.4720    4.8859   53.3905 H       1  UNL         0.0273
     78 H          -6.5254    6.0236   53.1345 H       1  UNL         0.0644
     79 H          -4.0745    6.2864   53.1170 H       1  UNL         0.0643
     80 H          -3.7043    2.6807   50.7819 H       1  UNL         0.0659
     81 H          -2.0241    5.5328   52.4301 H       1  UNL         0.1528
     82 H          -0.0696    3.8434   53.1716 H       1  UNL         0.0643
     83 H           1.7129    2.5253   52.1385 H       1  UNL         0.0630
     84 H          -0.5155    2.4391   48.4282 H       1  UNL         0.0630
     85 H          -2.2789    3.7987   49.4672 H       1  UNL         0.0643
     86 H           3.0827    1.4494   51.3268 H       1  UNL         0.0637
     87 H           4.6585   -0.6215   47.8825 H       1  UNL         0.0630
     88 H           2.6755    0.0528   46.5742 H       1  UNL         0.0623
     89 H           0.8985    1.4183   47.5991 H       1  UNL         0.0629
     90 H           5.7335   -1.3305   49.2308 H       1  UNL         0.1889
     91 H           4.8477    1.2342   52.0610 H       1  UNL         0.1258
     92 H           5.1272   -0.3303   52.4711 H       1  UNL         0.1258
     93 H          -8.5748    5.2258   54.3796 H       1  UNL         0.0273
     94 H          -8.2578    3.6999   55.1672 H       1  UNL         0.0273
     95 H         -10.8002    5.3742   55.5084 H       1  UNL         0.0275
     96 H          -9.4881    5.2610   56.6521 H       1  UNL         0.0275
     97 H         -10.8040    4.5480   58.9826 H       1  UNL         0.0433
     98 H         -10.7159    3.5693   60.4547 H       1  UNL         0.0433
     99 H         -11.8518    3.1154   59.1604 H       1  UNL         0.0433
    100 H         -10.6119    0.0342   62.9091 H       1  UNL         0.0280
    101 H          -9.4706   -0.3782   61.6249 H       1  UNL         0.0280
    102 H         -10.9926    0.4555   61.2363 H       1  UNL         0.0280
@<TRIPOS>BOND
     1     1     2   ar
     2     1     6   ar
     3     1    54    1
     4     2     3   ar
     5     2    55    1
     6     3     4   ar
     7     3    53    1
     8     4     5   ar
     9     4     7    1
    10     5     6   ar
    11     5    56    1
    12     6    57    1
    13     7     8    1
    14     7    15    1
    15     7    58    1
    16     8     9   ar
    17     8    13   ar
    18     9    10   ar
    19     9    14    1
    20    10    11   ar
    21    10    59    1
    22    11    12   ar
    23    11    60    1
    24    12    13   ar
    25    12    61    1
    26    14    62    1
    27    14    63    1
    28    14    64    1
    29    15    16   am
    30    15    52    1
    31    16    17    2
    32    16    18    1
    33    18    19    1
    34    18    51    1
    35    18    65    1
    36    19    20    1
    37    19    66    1
    38    19    67    1
    39    20    21    1
    40    20    68    1
    41    20    69    1
    42    21    22    1
    43    21    26    1
    44    21    50    1
    45    22    23    1
    46    22    70    1
    47    22    71    1
    48    23    24    1
    49    23    27    1
    50    24    25    1
    51    24    72    1
    52    24    73    1
    53    25    26    1
    54    25    74    1
    55    25    75    1
    56    26    76    1
    57    26    77    1
    58    27    28   ar
    59    27    32   ar
    60    28    29   ar
    61    28    78    1
    62    29    30   ar
    63    29    79    1
    64    30    31   ar
    65    30    34    1
    66    31    32   ar
    67    31    80    1
    68    32    33    1
    69    34    35    1
    70    34    81    1
    71    35    36   ar
    72    35    40   ar
    73    36    37   ar
    74    36    82    1
    75    37    38   ar
    76    37    83    1
    77    38    39   ar
    78    38    41    1
    79    39    40   ar
    80    39    84    1
    81    40    85    1
    82    41    42   ar
    83    41    46   ar
    84    42    43   ar
    85    42    86    1
    86    43    44   ar
    87    43    47    1
    88    44    45   ar
    89    44    87    1
    90    45    46   ar
    91    45    88    1
    92    46    89    1
    93    47    48    1
    94    47    49    1
    95    48    90    1
    96    49    91    1
    97    49    92    1
    98    50    51    1
    99    50    93    1
   100    50    94    1
   101    51    95    1
   102    51    96    1
   103    52    97    1
   104    52    98    1
   105    52    99    1
   106    53   100    1
   107    53   101    1
   108    53   102    1
@<TRIPOS>SUBSTRUCTURE
     1 UNL         1 TEMP              0 ****  ****    0 ROOT


##########                                Name:    ZINC001411334959
##########                DOCK_Rotatable_Bonds:                   9
##########                         Heavy_Atoms:                  24
##########                    Molecular_Weight:              339.37
##########                DOCK_Rotatable_Bonds:                   9
##########                       Formal_Charge:           0.0199995
##########                     HBond_Acceptors:                   9
##########                        HBond_Donors:                   3
##########                         Heavy_Atoms:                  24
##########                          Grid_Score:          -35.326416
##########                     Grid_vdw_energy:          -33.981747
##########                      Grid_es_energy:           -1.344670
##########           Internal_energy_repulsive:            7.181288

@<TRIPOS>MOLECULE
ZINC001411334959
 46 48 1 0 0
SMALL
USER_CHARGES


@<TRIPOS>ATOM
      1 O1         -8.9156    3.7369   51.9480 O.2     1  ZINC001411334959   -0.5400
      2 C2         -8.8205    3.8366   50.7430 C.2     1  ZINC001411334959    0.5200
      3 C3         -9.8852    4.5614   49.9606 C.3     1  ZINC001411334959   -0.1400
      4 C4         -9.2653    5.1762   48.7042 C.3     1  ZINC001411334959   -0.0100
      5 C5        -10.3017    5.9998   47.9841 C.2     1  ZINC001411334959    0.0100
      6 N6        -11.6000    5.7991   47.9666 N.2     1  ZINC001411334959   -0.2800
      7 N7        -12.1488    6.7108   47.2445 N.pl3   1  ZINC001411334959   -0.2500
      8 N8        -11.2627    7.5168   46.7766 N.2     1  ZINC001411334959   -0.2800
      9 C9        -10.0797    7.1365   47.2034 C.2     1  ZINC001411334959   -0.0200
     10 N10        -7.7599    3.3040   50.1043 N.am    1  ZINC001411334959   -0.7200
     11 C11        -6.7249    2.5995   50.8649 C.3     1  ZINC001411334959    0.1200
     12 C12        -5.6404    1.9590   49.9826 C.3     1  ZINC001411334959   -0.1400
     13 C13        -4.6208    2.4202   51.0374 C.3     1  ZINC001411334959   -0.1200
     14 C14        -3.3176    2.9527   50.4385 C.3     1  ZINC001411334959    0.1300
     15 N15        -2.6381    1.8766   49.7128 N.am    1  ZINC001411334959   -0.7200
     16 C16        -1.5132    2.1380   49.0180 C.2     1  ZINC001411334959    0.5100
     17 O17        -1.0627    3.2638   48.9946 O.2     1  ZINC001411334959   -0.5100
     18 C18        -0.8152    1.0314   48.2701 C.3     1  ZINC001411334959    0.0700
     19 F19         0.5267    1.3560   48.0435 F       1  ZINC001411334959   -0.1800
     20 C20        -0.9415   -0.3160   49.0321 C.3     1  ZINC001411334959   -0.1600
     21 C21        -0.8539   -1.3259   47.8601 C.3     1  ZINC001411334959    0.0500
     22 O22        -1.5469   -0.6968   46.7704 O.3     1  ZINC001411334959   -0.3700
     23 C23        -1.5385    0.7252   46.9410 C.3     1  ZINC001411334959    0.0400
     24 C24        -5.6240    3.5245   51.4102 C.3     1  ZINC001411334959   -0.1400
     25 H25       -10.6671    3.8582   49.6732 H       1  ZINC001411334959    0.1000
     26 H26       -10.3153    5.3507   50.5771 H       1  ZINC001411334959    0.1000
     27 H27        -8.4272    5.8132   48.9870 H       1  ZINC001411334959    0.1000
     28 H28        -8.9120    4.3815   48.0472 H       1  ZINC001411334959    0.0900
     29 H29       -13.1014    6.7809   47.0757 H       1  ZINC001411334959    0.4700
     30 H30        -9.1296    7.6031   46.9889 H       1  ZINC001411334959    0.2000
     31 H31        -7.6820    3.3872   49.1410 H       1  ZINC001411334959    0.4000
     32 H32        -7.1366    1.9224   51.6134 H       1  ZINC001411334959    0.1200
     33 H33        -5.7262    0.8754   49.9026 H       1  ZINC001411334959    0.0800
     34 H34        -5.5195    2.4476   49.0157 H       1  ZINC001411334959    0.0900
     35 H35        -4.4553    1.6925   51.8319 H       1  ZINC001411334959    0.1000
     36 H36        -3.5403    3.7696   49.7519 H       1  ZINC001411334959    0.0800
     37 H37        -2.6720    3.3159   51.2380 H       1  ZINC001411334959    0.0800
     38 H38        -2.9977    0.9759   49.7325 H       1  ZINC001411334959    0.4100
     39 H39        -0.1153   -0.4516   49.7300 H       1  ZINC001411334959    0.1000
     40 H40        -1.9013   -0.3897   49.5433 H       1  ZINC001411334959    0.1100
     41 H41         0.1874   -1.5059   47.5928 H       1  ZINC001411334959    0.0700
     42 H42        -1.3433   -2.2618   48.1299 H       1  ZINC001411334959    0.1000
     43 H43        -2.5617    1.0988   46.9823 H       1  ZINC001411334959    0.0900
     44 H44        -1.0056    1.1938   46.1136 H       1  ZINC001411334959    0.0900
     45 H45        -5.4987    4.4410   50.8335 H       1  ZINC001411334959    0.0900
     46 H46        -5.6965    3.7046   52.4827 H       1  ZINC001411334959    0.0800
@<TRIPOS>BOND
     1     1     2    2
     2     2     3    1
     3     2    10   am
     4     3     4    1
     5     3    25    1
     6     3    26    1
     7     4     5    1
     8     4    27    1
     9     4    28    1
    10     5     9    1
    11     5     6    2
    12     6     7    1
    13     7     8    1
    14     7    29    1
    15     8     9    2
    16     9    30    1
    17    10    11    1
    18    10    31    1
    19    11    24    1
    20    11    12    1
    21    11    32    1
    22    12    13    1
    23    12    33    1
    24    12    34    1
    25    13    14    1
    26    13    24    1
    27    13    35    1
    28    14    15    1
    29    14    36    1
    30    14    37    1
    31    15    16   am
    32    15    38    1
    33    16    17    2
    34    16    18    1
    35    18    23    1
    36    18    19    1
    37    18    20    1
    38    20    21    1
    39    20    39    1
    40    20    40    1
    41    21    22    1
    42    21    41    1
    43    21    42    1
    44    22    23    1
    45    23    43    1
    46    23    44    1
    47    24    45    1
    48    24    46    1
@<TRIPOS>SUBSTRUCTURE
     1 ZINC001411334959        1 TEMP              0 ****  ****    0 ROOT


##########                                Name:    ZINC001456607258
##########                DOCK_Rotatable_Bonds:                   9
##########                         Heavy_Atoms:                  25
##########                    Molecular_Weight:             339.437
##########                DOCK_Rotatable_Bonds:                   9
##########                       Formal_Charge:          -0.0200009
##########                     HBond_Acceptors:                   5
##########                        HBond_Donors:                   2
##########                         Heavy_Atoms:                  25
##########                          Grid_Score:          -35.312393
##########                     Grid_vdw_energy:          -35.732658
##########                      Grid_es_energy:            0.420266
##########           Internal_energy_repulsive:           17.780178

@<TRIPOS>MOLECULE
ZINC001456607258
 50 52 1 0 0
SMALL
USER_CHARGES


@<TRIPOS>ATOM
      1 C1         -0.7759   -0.6803   48.6982 C.3     1  ZINC001456607258   -0.1600
      2 C2         -0.2182    0.4629   47.8478 C.3     1  ZINC001456607258   -0.1100
      3 C3         -1.3753    1.2852   47.2770 C.3     1  ZINC001456607258   -0.1000
      4 H4         -2.1134    0.6159   46.8351 H       1  ZINC001456607258    0.0900
      5 C5         -0.8435    2.2378   46.2042 C.3     1  ZINC001456607258   -0.0700
      6 C6         -0.5948    1.4713   44.9307 C.ar    1  ZINC001456607258   -0.0800
      7 C7         -1.6523    0.8912   44.2554 C.ar    1  ZINC001456607258   -0.1200
      8 C8         -1.4241    0.1881   43.0873 C.ar    1  ZINC001456607258   -0.1200
      9 C9         -0.1385    0.0656   42.5942 C.ar    1  ZINC001456607258   -0.1200
     10 C10         0.9188    0.6465   43.2690 C.ar    1  ZINC001456607258   -0.1200
     11 C11         0.6902    1.3532   44.4348 C.ar    1  ZINC001456607258   -0.1200
     12 C12        -2.0182    2.0825   48.3825 C.2     1  ZINC001456607258    0.5200
     13 O13        -1.3279    2.7012   49.1645 O.2     1  ZINC001456607258   -0.5300
     14 N14        -3.3605    2.1079   48.5023 N.am    1  ZINC001456607258   -0.7300
     15 C15        -3.9855    2.8829   49.5769 C.3     1  ZINC001456607258    0.1300
     16 C16        -4.5336    1.9296   50.6407 C.3     1  ZINC001456607258   -0.1400
     17 C17        -5.3135    2.6367   51.7639 C.3     1  ZINC001456607258    0.1100
     18 N18        -6.2810    1.5277   51.6533 N.am    1  ZINC001456607258   -0.6500
     19 C19        -7.1764    0.9683   52.4911 C.2     1  ZINC001456607258    0.6100
     20 O20        -7.8620    0.0368   52.1148 O.2     1  ZINC001456607258   -0.5400
     21 C21        -7.3245    1.4850   53.8622 C.2     1  ZINC001456607258   -0.2300
     22 C22        -6.6999    2.5757   54.4015 C.2     1  ZINC001456607258    0.0400
     23 N23        -7.1054    2.7093   55.6786 N.pl3   1  ZINC001456607258   -0.5500
     24 C24        -7.9920    1.7229   55.9994 C.2     1  ZINC001456607258   -0.0200
     25 C25        -8.1765    0.9376   54.9233 C.2     1  ZINC001456607258   -0.1400
     26 C26        -5.8742    1.2774   50.2570 C.3     1  ZINC001456607258    0.1100
     27 H27         0.0427   -1.3194   49.0296 H       1  ZINC001456607258    0.0600
     28 H28        -1.2905   -0.2694   49.5669 H       1  ZINC001456607258    0.0600
     29 H29        -1.4768   -1.2666   48.1042 H       1  ZINC001456607258    0.0600
     30 H30         0.4114    1.1023   48.4666 H       1  ZINC001456607258    0.0800
     31 H31         0.3738    0.0520   47.0300 H       1  ZINC001456607258    0.0700
     32 H32        -1.5773    3.0221   46.0188 H       1  ZINC001456607258    0.0800
     33 H33         0.0892    2.6861   46.5465 H       1  ZINC001456607258    0.0900
     34 H34        -2.6567    0.9869   44.6406 H       1  ZINC001456607258    0.1200
     35 H35        -2.2503   -0.2657   42.5601 H       1  ZINC001456607258    0.1200
     36 H36         0.0398   -0.4843   41.6820 H       1  ZINC001456607258    0.1200
     37 H37         1.9233    0.5504   42.8840 H       1  ZINC001456607258    0.1200
     38 H38         1.5163    1.8071   44.9621 H       1  ZINC001456607258    0.1200
     39 H39        -3.9126    1.6130   47.8768 H       1  ZINC001456607258    0.4000
     40 H40        -3.2441    3.5426   50.0276 H       1  ZINC001456607258    0.0700
     41 H41        -4.8014    3.4788   49.1680 H       1  ZINC001456607258    0.0800
     42 H42        -3.7880    1.2208   51.0009 H       1  ZINC001456607258    0.1100
     43 H43        -4.7841    2.6644   52.7163 H       1  ZINC001456607258    0.0800
     44 H44        -5.7205    3.6054   51.4737 H       1  ZINC001456607258    0.0900
     45 H45        -6.0002    3.2201   53.8901 H       1  ZINC001456607258    0.1700
     46 H46        -6.8093    3.4069   56.2841 H       1  ZINC001456607258    0.4200
     47 H47        -8.4711    1.5966   56.9590 H       1  ZINC001456607258    0.1700
     48 H48        -8.8184    0.0717   54.8563 H       1  ZINC001456607258    0.1500
     49 H49        -6.4459    1.8467   49.5240 H       1  ZINC001456607258    0.0900
     50 H50        -5.7924    0.2198   50.0061 H       1  ZINC001456607258    0.0900
@<TRIPOS>BOND
     1     1     2    1
     2     1    27    1
     3     1    28    1
     4     1    29    1
     5     2     3    1
     6     2    30    1
     7     2    31    1
     8     3     4    1
     9     3     5    1
    10     3    12    1
    11     5     6    1
    12     5    32    1
    13     5    33    1
    14     6    11   ar
    15     6     7   ar
    16     7     8   ar
    17     7    34    1
    18     8     9   ar
    19     8    35    1
    20     9    10   ar
    21     9    36    1
    22    10    11   ar
    23    10    37    1
    24    11    38    1
    25    12    13    2
    26    12    14   am
    27    14    15    1
    28    14    39    1
    29    15    16    1
    30    15    40    1
    31    15    41    1
    32    16    26    1
    33    16    17    1
    34    16    42    1
    35    17    18    1
    36    17    43    1
    37    17    44    1
    38    18    19   am
    39    18    26    1
    40    19    20    2
    41    19    21    1
    42    21    25    1
    43    21    22    2
    44    22    23    1
    45    22    45    1
    46    23    24    1
    47    23    46    1
    48    24    25    2
    49    24    47    1
    50    25    48    1
    51    26    49    1
    52    26    50    1
@<TRIPOS>SUBSTRUCTURE
     1 ZINC001456607258        1 TEMP              0 ****  ****    0 ROOT


##########                                Name:    ZINC000002634904
##########                DOCK_Rotatable_Bonds:                   7
##########                         Heavy_Atoms:                  31
##########                    Molecular_Weight:             423.498
##########                DOCK_Rotatable_Bonds:                   7
##########                       Formal_Charge:        -7.45058e-08
##########                     HBond_Acceptors:                   7
##########                        HBond_Donors:                   1
##########                         Heavy_Atoms:                  31
##########                          Grid_Score:          -35.293839
##########                     Grid_vdw_energy:          -34.210854
##########                      Grid_es_energy:           -1.082983
##########           Internal_energy_repulsive:            6.354967

@<TRIPOS>MOLECULE
ZINC000002634904
 48 51 1 0 0
SMALL
USER_CHARGES


@<TRIPOS>ATOM
      1 N1        -10.6248   -2.0455   57.3987 N.1     1  ZINC000002634904   -0.4100
      2 C2        -10.1607   -1.4472   56.5519 C.1     1  ZINC000002634904    0.2500
      3 C3         -9.5756   -0.6929   55.4844 C.ar    1  ZINC000002634904   -0.0400
      4 C4         -8.9536    0.5303   55.7498 C.ar    1  ZINC000002634904   -0.0500
      5 C5         -8.3921    1.2529   54.7209 C.ar    1  ZINC000002634904   -0.1400
      6 C6         -8.4435    0.7668   53.4186 C.ar    1  ZINC000002634904    0.1700
      7 N7         -7.8733    1.5018   52.3784 N.am    1  ZINC000002634904   -0.6700
      8 C8         -6.7964    1.0219   51.7256 C.2     1  ZINC000002634904    0.5400
      9 O9         -6.3226   -0.0487   52.0422 O.2     1  ZINC000002634904   -0.5000
     10 C10        -6.1807    1.8157   50.6022 C.3     1  ZINC000002634904   -0.1700
     11 S11        -4.9611    2.9704   51.2771 S.3     1  ZINC000002634904    0.1300
     12 C12        -3.6064    2.6506   50.1969 C.ar    1  ZINC000002634904    0.2100
     13 N13        -3.8431    2.2789   48.9438 N.ar    1  ZINC000002634904   -0.2900
     14 N14        -2.8852    2.0350   48.1198 N.ar    1  ZINC000002634904   -0.1600
     15 C15        -1.6190    2.1501   48.5060 C.ar    1  ZINC000002634904    0.0600
     16 C16        -0.5148    1.8701   47.5586 C.ar    1  ZINC000002634904   -0.0500
     17 C17         0.0746    2.9118   46.8430 C.ar    1  ZINC000002634904   -0.0800
     18 C18         1.1027    2.6448   45.9621 C.ar    1  ZINC000002634904   -0.1200
     19 C19         1.5483    1.3469   45.7878 C.ar    1  ZINC000002634904   -0.1000
     20 C20         0.9675    0.3094   46.4948 C.ar    1  ZINC000002634904   -0.1200
     21 C21        -0.0570    0.5647   47.3832 C.ar    1  ZINC000002634904   -0.0800
     22 C22        -1.3430    2.5432   49.8311 C.ar    1  ZINC000002634904    0.2300
     23 C23         0.0539    2.6840   50.3040 C.ar    1  ZINC000002634904   -0.0700
     24 C24         0.8416    1.5515   50.5077 C.ar    1  ZINC000002634904   -0.0700
     25 C25         2.1422    1.6890   50.9478 C.ar    1  ZINC000002634904   -0.1200
     26 C26         2.6650    2.9473   51.1869 C.ar    1  ZINC000002634904   -0.0900
     27 C27         1.8884    4.0745   50.9872 C.ar    1  ZINC000002634904   -0.1200
     28 C28         0.5883    3.9500   50.5417 C.ar    1  ZINC000002634904   -0.0700
     29 N29        -2.3656    2.7902   50.6464 N.ar    1  ZINC000002634904   -0.4400
     30 C30        -9.0613   -0.4504   53.1507 C.ar    1  ZINC000002634904   -0.1200
     31 C31        -9.6202   -1.1809   54.1754 C.ar    1  ZINC000002634904   -0.0500
     32 H32        -8.9137    0.9084   56.7607 H       1  ZINC000002634904    0.1400
     33 H33        -7.9116    2.1983   54.9252 H       1  ZINC000002634904    0.1400
     34 H34        -8.2523    2.3580   52.1250 H       1  ZINC000002634904    0.4200
     35 H35        -5.6909    1.1371   49.9038 H       1  ZINC000002634904    0.1300
     36 H36        -6.9594    2.3729   50.0817 H       1  ZINC000002634904    0.1300
     37 H37        -0.2729    3.9254   46.9778 H       1  ZINC000002634904    0.1300
     38 H38         1.5599    3.4507   45.4074 H       1  ZINC000002634904    0.1300
     39 H39         2.3528    1.1427   45.0966 H       1  ZINC000002634904    0.1300
     40 H40         1.3196   -0.7020   46.3545 H       1  ZINC000002634904    0.1300
     41 H41        -0.5095   -0.2461   47.9349 H       1  ZINC000002634904    0.1200
     42 H42         0.4344    0.5685   50.3216 H       1  ZINC000002634904    0.1300
     43 H43         2.7530    0.8125   51.1062 H       1  ZINC000002634904    0.1300
     44 H44         3.6834    3.0499   51.5313 H       1  ZINC000002634904    0.1300
     45 H45         2.3019    5.0542   51.1759 H       1  ZINC000002634904    0.1300
     46 H46        -0.0170    4.8307   50.3861 H       1  ZINC000002634904    0.1300
     47 H47        -9.0990   -0.8248   52.1384 H       1  ZINC000002634904    0.1500
     48 H48       -10.0994   -2.1260   53.9668 H       1  ZINC000002634904    0.1400
@<TRIPOS>BOND
     1     1     2    3
     2     2     3    1
     3     3    31   ar
     4     3     4   ar
     5     4     5   ar
     6     4    32    1
     7     5     6   ar
     8     5    33    1
     9     6     7    1
    10     6    30   ar
    11     7     8   am
    12     7    34    1
    13     8     9    2
    14     8    10    1
    15    10    11    1
    16    10    35    1
    17    10    36    1
    18    11    12    1
    19    12    29   ar
    20    12    13   ar
    21    13    14   ar
    22    14    15   ar
    23    15    16    1
    24    15    22   ar
    25    16    21   ar
    26    16    17   ar
    27    17    18   ar
    28    17    37    1
    29    18    19   ar
    30    18    38    1
    31    19    20   ar
    32    19    39    1
    33    20    21   ar
    34    20    40    1
    35    21    41    1
    36    22    23    1
    37    22    29   ar
    38    23    28   ar
    39    23    24   ar
    40    24    25   ar
    41    24    42    1
    42    25    26   ar
    43    25    43    1
    44    26    27   ar
    45    26    44    1
    46    27    28   ar
    47    27    45    1
    48    28    46    1
    49    30    31   ar
    50    30    47    1
    51    31    48    1
@<TRIPOS>SUBSTRUCTURE
     1 ZINC000002634904        1 TEMP              0 ****  ****    0 ROOT


##########                                Name:    ZINC000179496896
##########                DOCK_Rotatable_Bonds:                   8
##########                         Heavy_Atoms:                  27
##########                    Molecular_Weight:             396.504
##########                DOCK_Rotatable_Bonds:                   8
##########                       Formal_Charge:          0.00999944
##########                     HBond_Acceptors:                   8
##########                        HBond_Donors:                   1
##########                         Heavy_Atoms:                  27
##########                          Grid_Score:          -35.266296
##########                     Grid_vdw_energy:          -35.424847
##########                      Grid_es_energy:            0.158549
##########           Internal_energy_repulsive:           24.748537

@<TRIPOS>MOLECULE
ZINC000179496896
 53 55 1 0 0
SMALL
USER_CHARGES


@<TRIPOS>ATOM
      1 C1         -8.2761    4.0403   56.2656 C.3     1  ZINC000179496896   -0.1500
      2 C2         -6.9258    3.9199   55.5563 C.3     1  ZINC000179496896   -0.1100
      3 C3         -5.8342    3.6192   56.5853 C.3     1  ZINC000179496896   -0.1400
      4 C4         -6.9873    2.7855   54.5316 C.3     1  ZINC000179496896    0.1200
      5 N5         -6.0282    3.0469   53.4555 N.pl3   1  ZINC000179496896   -0.3300
      6 N6         -5.0322    4.0297   53.4687 N.2     1  ZINC000179496896   -0.2700
      7 C7         -4.3684    3.9738   52.3472 C.2     1  ZINC000179496896    0.0800
      8 C8         -4.9227    2.9379   51.5625 C.2     1  ZINC000179496896   -0.2500
      9 C9         -4.4792    2.5251   50.2184 C.2     1  ZINC000179496896    0.5900
     10 O10        -5.2998    2.3033   49.3487 O.2     1  ZINC000179496896   -0.5300
     11 N11        -3.1642    2.3937   49.9534 N.am    1  ZINC000179496896   -0.7100
     12 C12        -2.7237    1.9818   48.6183 C.3     1  ZINC000179496896    0.1300
     13 C13        -1.2578    2.3734   48.4217 C.3     1  ZINC000179496896    0.0700
     14 H14        -1.1787    3.4578   48.3438 H       1  ZINC000179496896    0.0900
     15 C15        -0.4352    1.8867   49.6164 C.3     1  ZINC000179496896   -0.1900
     16 N16        -0.7466    1.7555   47.1910 N.3     1  ZINC000179496896   -0.5300
     17 C17         0.3177    2.5743   46.5932 C.3     1  ZINC000179496896    0.0600
     18 C18         1.0867    1.7287   45.5708 C.3     1  ZINC000179496896   -0.0400
     19 C19         0.0777    1.0498   44.6688 C.2     1  ZINC000179496896   -0.1700
     20 C20        -1.2360    0.9460   44.9524 C.2     1  ZINC000179496896   -0.1100
     21 C21        -1.9671    0.2827   43.9736 C.2     1  ZINC000179496896   -0.1200
     22 C22        -1.2703   -0.1429   42.9236 C.2     1  ZINC000179496896   -0.2200
     23 S23         0.4215    0.2907   43.1232 S.3     1  ZINC000179496896    0.1000
     24 C24        -1.8338    1.5116   46.2335 C.3     1  ZINC000179496896    0.1200
     25 C25        -5.9530    2.3801   52.2926 C.2     1  ZINC000179496896    0.0700
     26 C26        -6.8373    1.2393   51.8597 C.3     1  ZINC000179496896    0.3400
     27 F27        -6.1324    0.4104   50.9804 F       1  ZINC000179496896   -0.1500
     28 F28        -7.2301    0.5019   52.9818 F       1  ZINC000179496896   -0.2000
     29 H29        -8.2322    4.8486   56.9956 H       1  ZINC000179496896    0.0600
     30 H30        -9.0537    4.2546   55.5325 H       1  ZINC000179496896    0.0600
     31 H31        -8.5042    3.1036   56.7740 H       1  ZINC000179496896    0.0600
     32 H32        -6.6976    4.8568   55.0479 H       1  ZINC000179496896    0.0800
     33 H33        -6.0623    2.6824   57.0936 H       1  ZINC000179496896    0.0600
     34 H34        -4.8722    3.5335   56.0799 H       1  ZINC000179496896    0.0600
     35 H35        -5.7903    4.4274   57.3153 H       1  ZINC000179496896    0.0700
     36 H36        -6.7389    1.8423   55.0184 H       1  ZINC000179496896    0.1000
     37 H37        -7.9930    2.7258   54.1155 H       1  ZINC000179496896    0.1000
     38 H38        -3.5405    4.6083   52.0674 H       1  ZINC000179496896    0.2000
     39 H39        -2.5096    2.5717   50.6467 H       1  ZINC000179496896    0.4100
     40 H40        -2.8276    0.9014   48.5186 H       1  ZINC000179496896    0.0700
     41 H41        -3.3362    2.4770   47.8648 H       1  ZINC000179496896    0.0700
     42 H42         0.6091    2.1656   49.4764 H       1  ZINC000179496896    0.0600
     43 H43        -0.8146    2.3452   50.5297 H       1  ZINC000179496896    0.0700
     44 H44        -0.5143    0.8023   49.6944 H       1  ZINC000179496896    0.0600
     45 H45        -0.1231    3.4374   46.0943 H       1  ZINC000179496896    0.0400
     46 H46         0.9996    2.9119   47.3736 H       1  ZINC000179496896    0.0900
     47 H47         1.7378    2.3705   44.9774 H       1  ZINC000179496896    0.0800
     48 H48         1.6823    0.9768   46.0885 H       1  ZINC000179496896    0.0900
     49 H49        -3.0317    0.1230   44.0604 H       1  ZINC000179496896    0.1400
     50 H50        -1.6813   -0.6737   42.0775 H       1  ZINC000179496896    0.1600
     51 H51        -2.5390    0.7955   46.6554 H       1  ZINC000179496896    0.0900
     52 H52        -2.3462    2.4486   46.0155 H       1  ZINC000179496896    0.0500
     53 H53        -7.7203    1.6343   51.3573 H       1  ZINC000179496896    0.1300
@<TRIPOS>BOND
     1     1     2    1
     2     1    29    1
     3     1    30    1
     4     1    31    1
     5     2     3    1
     6     2     4    1
     7     2    32    1
     8     3    33    1
     9     3    34    1
    10     3    35    1
    11     4     5    1
    12     4    36    1
    13     4    37    1
    14     5    25    1
    15     5     6    1
    16     6     7    2
    17     7     8    1
    18     7    38    1
    19     8     9    1
    20     8    25    2
    21     9    10    2
    22     9    11   am
    23    11    12    1
    24    11    39    1
    25    12    13    1
    26    12    40    1
    27    12    41    1
    28    13    14    1
    29    13    15    1
    30    13    16    1
    31    15    42    1
    32    15    43    1
    33    15    44    1
    34    16    24    1
    35    16    17    1
    36    17    18    1
    37    17    45    1
    38    17    46    1
    39    18    19    1
    40    18    47    1
    41    18    48    1
    42    19    23    1
    43    19    20    2
    44    20    21    1
    45    20    24    1
    46    21    22    2
    47    21    49    1
    48    22    23    1
    49    22    50    1
    50    24    51    1
    51    24    52    1
    52    25    26    1
    53    26    27    1
    54    26    28    1
    55    26    53    1
@<TRIPOS>SUBSTRUCTURE
     1 ZINC000179496896        1 TEMP              0 ****  ****    0 ROOT


##########                                Name:    ZINC000548281822
##########                DOCK_Rotatable_Bonds:                   6
##########                         Heavy_Atoms:                  24
##########                    Molecular_Weight:             332.406
##########                DOCK_Rotatable_Bonds:                   6
##########                       Formal_Charge:        -5.58794e-08
##########                     HBond_Acceptors:                   8
##########                        HBond_Donors:                   2
##########                         Heavy_Atoms:                  24
##########                          Grid_Score:          -35.236126
##########                     Grid_vdw_energy:          -34.510792
##########                      Grid_es_energy:           -0.725332
##########           Internal_energy_repulsive:            7.283577

@<TRIPOS>MOLECULE
ZINC000548281822
 48 50 1 0 0
SMALL
USER_CHARGES


@<TRIPOS>ATOM
      1 C1         -5.1092    3.4069   50.8498 C.3     1  ZINC000548281822   -0.1700
      2 C2         -5.3381    2.0324   50.2178 C.3     1  ZINC000548281822    0.2600
      3 H3         -5.7499    2.1571   49.2163 H       1  ZINC000548281822    0.1400
      4 N4         -4.0638    1.3143   50.1360 N.am    1  ZINC000548281822   -0.7400
      5 C5         -3.2108    1.5686   49.1240 C.2     1  ZINC000548281822    0.7100
      6 O6         -3.4994    2.3929   48.2781 O.2     1  ZINC000548281822   -0.5700
      7 N7         -2.0378    0.9091   49.0495 N.am    1  ZINC000548281822   -0.7400
      8 C8         -1.1098    1.1867   47.9505 C.3     1  ZINC000548281822    0.1600
      9 H9         -1.0450    2.2632   47.7919 H       1  ZINC000548281822    0.1000
     10 C10         0.2763    0.6371   48.3003 C.3     1  ZINC000548281822   -0.1400
     11 C11         1.2968    1.1276   47.2674 C.3     1  ZINC000548281822    0.1100
     12 N12         0.7792    0.8522   45.9250 N.pl3   1  ZINC000548281822   -0.4600
     13 C13         1.4730    0.8246   44.7520 C.2     1  ZINC000548281822   -0.0500
     14 C14         0.5833    0.5289   43.7827 C.2     1  ZINC000548281822   -0.0300
     15 N15        -0.6225    0.3809   44.3551 N.2     1  ZINC000548281822   -0.4900
     16 C16        -0.5143    0.5732   45.6372 C.2     1  ZINC000548281822    0.2100
     17 C17        -1.6148    0.5097   46.6701 C.3     1  ZINC000548281822   -0.0500
     18 C18        -6.3050    1.2451   51.0640 C.2     1  ZINC000548281822    0.1700
     19 N19        -7.2668    1.7332   51.8100 N.2     1  ZINC000548281822   -0.4600
     20 C20        -7.8626    0.6680   52.3751 C.2     1  ZINC000548281822    0.1900
     21 C21        -9.0326    0.6999   53.3243 C.3     1  ZINC000548281822    0.0200
     22 C22        -9.7916   -0.6261   53.2430 C.3     1  ZINC000548281822   -0.1400
     23 C23        -8.5252    0.9103   54.7523 C.3     1  ZINC000548281822   -0.1400
     24 C24        -9.9689    1.8478   52.9414 C.3     1  ZINC000548281822   -0.1400
     25 N25        -7.2443   -0.3938   51.9519 N.2     1  ZINC000548281822   -0.3700
     26 O26        -6.3498   -0.0843   51.1932 O.3     1  ZINC000548281822    0.0800
     27 H27        -4.6975    3.2823   51.8513 H       1  ZINC000548281822    0.0700
     28 H28        -4.4099    3.9764   50.2377 H       1  ZINC000548281822    0.0900
     29 H29        -6.0573    3.9413   50.9107 H       1  ZINC000548281822    0.0800
     30 H30        -3.8341    0.6558   50.8102 H       1  ZINC000548281822    0.4000
     31 H31        -1.8080    0.2506   49.7237 H       1  ZINC000548281822    0.4000
     32 H32         0.5661    0.9863   49.2913 H       1  ZINC000548281822    0.1000
     33 H33         0.2474   -0.4525   48.2932 H       1  ZINC000548281822    0.0800
     34 H34         1.4508    2.2000   47.3867 H       1  ZINC000548281822    0.0900
     35 H35         2.2415    0.6026   47.4094 H       1  ZINC000548281822    0.1000
     36 H36         2.5300    1.0051   44.6238 H       1  ZINC000548281822    0.1800
     37 H37         0.8021    0.4292   42.7299 H       1  ZINC000548281822    0.1700
     38 H38        -1.8639   -0.5309   46.8784 H       1  ZINC000548281822    0.0900
     39 H39        -2.4968    1.0326   46.3003 H       1  ZINC000548281822    0.1000
     40 H40        -9.1246   -1.4439   53.5157 H       1  ZINC000548281822    0.0600
     41 H41       -10.6379   -0.6030   53.9295 H       1  ZINC000548281822    0.0700
     42 H42       -10.1531   -0.7760   52.2256 H       1  ZINC000548281822    0.0700
     43 H43        -7.9845    1.8550   54.8103 H       1  ZINC000548281822    0.0600
     44 H44        -9.3715    0.9333   55.4389 H       1  ZINC000548281822    0.0700
     45 H45        -7.8582    0.0925   55.0251 H       1  ZINC000548281822    0.0600
     46 H46       -10.3304    1.6980   51.9241 H       1  ZINC000548281822    0.0700
     47 H47       -10.8151    1.8708   53.6280 H       1  ZINC000548281822    0.0700
     48 H48        -9.4282    2.7924   52.9994 H       1  ZINC000548281822    0.0600
@<TRIPOS>BOND
     1     1     2    1
     2     1    27    1
     3     1    28    1
     4     1    29    1
     5     2     3    1
     6     2     4    1
     7     2    18    1
     8     4     5   am
     9     4    30    1
    10     5     6    2
    11     5     7   am
    12     7     8    1
    13     7    31    1
    14     8     9    1
    15     8    17    1
    16     8    10    1
    17    10    11    1
    18    10    32    1
    19    10    33    1
    20    11    12    1
    21    11    34    1
    22    11    35    1
    23    12    16    1
    24    12    13    1
    25    13    14    2
    26    13    36    1
    27    14    15    1
    28    14    37    1
    29    15    16    2
    30    16    17    1
    31    17    38    1
    32    17    39    1
    33    18    26    1
    34    18    19    2
    35    19    20    1
    36    20    21    1
    37    20    25    2
    38    21    22    1
    39    21    23    1
    40    21    24    1
    41    22    40    1
    42    22    41    1
    43    22    42    1
    44    23    43    1
    45    23    44    1
    46    23    45    1
    47    24    46    1
    48    24    47    1
    49    24    48    1
    50    25    26    1
@<TRIPOS>SUBSTRUCTURE
     1 ZINC000548281822        1 TEMP              0 ****  ****    0 ROOT


##########                                Name:    ZINC001039825450
##########                DOCK_Rotatable_Bonds:                   8
##########                         Heavy_Atoms:                  24
##########                    Molecular_Weight:             337.339
##########                DOCK_Rotatable_Bonds:                   8
##########                       Formal_Charge:           0.0100001
##########                     HBond_Acceptors:                  11
##########                        HBond_Donors:                   4
##########                         Heavy_Atoms:                  24
##########                          Grid_Score:          -35.192307
##########                     Grid_vdw_energy:          -33.673748
##########                      Grid_es_energy:           -1.518559
##########           Internal_energy_repulsive:            5.370018

@<TRIPOS>MOLECULE
ZINC001039825450
 43 45 1 0 0
SMALL
USER_CHARGES


@<TRIPOS>ATOM
      1 O1         -3.4928    2.3879   48.1284 O.2     1  ZINC001039825450   -0.5100
      2 C2         -3.0840    1.9099   49.1654 C.2     1  ZINC001039825450    0.5000
      3 C3         -1.6176    1.6019   49.3265 C.3     1  ZINC001039825450    0.1300
      4 N4         -1.2992    0.3587   48.6198 N.pl3   1  ZINC001039825450   -0.1500
      5 N5         -0.9658    0.2881   47.3797 N.2     1  ZINC001039825450   -0.2800
      6 C6         -0.7505   -0.9710   47.0721 C.2     1  ZINC001039825450   -0.0200
      7 C7         -0.9810   -1.6958   48.2435 C.2     1  ZINC001039825450   -0.0200
      8 N8         -1.3097   -0.8100   49.1563 N.2     1  ZINC001039825450   -0.2800
      9 N9         -3.9401    1.6594   50.1758 N.am    1  ZINC001039825450   -0.7300
     10 C10        -5.3655    1.9589   50.0191 C.3     1  ZINC001039825450    0.1000
     11 C11        -6.0364    1.9793   51.3940 C.3     1  ZINC001039825450    0.1100
     12 O12        -5.0891    2.3089   52.4119 O.3     1  ZINC001039825450   -0.5400
     13 C13        -7.2300    2.9706   51.4078 C.3     1  ZINC001039825450   -0.1600
     14 C14        -8.1217    2.3682   52.5222 C.3     1  ZINC001039825450    0.1000
     15 N15        -7.9850    0.9085   52.3671 N.am    1  ZINC001039825450   -0.6100
     16 C16        -8.8809   -0.0120   52.7749 C.2     1  ZINC001039825450    0.5200
     17 O17        -8.6629   -1.1915   52.5956 O.2     1  ZINC001039825450   -0.5100
     18 C18       -10.1536    0.4243   53.4538 C.3     1  ZINC001039825450    0.1100
     19 H19       -10.6608    1.1854   52.8608 H       1  ZINC001039825450    0.1200
     20 C20        -9.8574    0.9513   54.8713 C.3     1  ZINC001039825450    0.1100
     21 N21       -10.6055    0.0396   55.7497 N.am    1  ZINC001039825450   -0.7400
     22 C22       -11.2387   -0.8725   55.0005 C.2     1  ZINC001039825450    0.7100
     23 O23       -11.9335   -1.7515   55.4725 O.2     1  ZINC001039825450   -0.5800
     24 N24       -11.0388   -0.7279   53.6807 N.am    1  ZINC001039825450   -0.7200
     25 C25        -6.7097    0.6233   51.6933 C.3     1  ZINC001039825450    0.1200
     26 H26        -1.0269    2.4180   48.9101 H       1  ZINC001039825450    0.1400
     27 H27        -1.3843    1.4879   50.3851 H       1  ZINC001039825450    0.1400
     28 H28        -0.4561   -1.3646   46.1105 H       1  ZINC001039825450    0.2000
     29 H29        -0.9010   -2.7650   48.3734 H       1  ZINC001039825450    0.2000
     30 H30        -3.6124    1.2808   51.0065 H       1  ZINC001039825450    0.4000
     31 H31        -5.4822    2.9326   49.5435 H       1  ZINC001039825450    0.0900
     32 H32        -5.8317    1.1933   49.3989 H       1  ZINC001039825450    0.0900
     33 H33        -5.2397    1.8536   53.2517 H       1  ZINC001039825450    0.3800
     34 H34        -6.9003    3.9754   51.6716 H       1  ZINC001039825450    0.0900
     35 H35        -7.7490    2.9704   50.4493 H       1  ZINC001039825450    0.0900
     36 H36        -7.7651    2.6805   53.5037 H       1  ZINC001039825450    0.0800
     37 H37        -9.1598    2.6690   52.3814 H       1  ZINC001039825450    0.0800
     38 H38        -8.7897    0.8975   55.0841 H       1  ZINC001039825450    0.0900
     39 H39       -10.2197    1.9733   54.9829 H       1  ZINC001039825450    0.1000
     40 H40       -10.6356    0.0906   56.7178 H       1  ZINC001039825450    0.4400
     41 H41       -11.4164   -1.2943   52.9897 H       1  ZINC001039825450    0.4400
     42 H42        -6.8941    0.0876   50.7622 H       1  ZINC001039825450    0.0900
     43 H43        -6.0708    0.0281   52.3457 H       1  ZINC001039825450    0.0900
@<TRIPOS>BOND
     1     1     2    2
     2     2     3    1
     3     2     9   am
     4     3     4    1
     5     3    26    1
     6     3    27    1
     7     4     8    1
     8     4     5    1
     9     5     6    2
    10     6     7    1
    11     6    28    1
    12     7     8    2
    13     7    29    1
    14     9    10    1
    15     9    30    1
    16    10    11    1
    17    10    31    1
    18    10    32    1
    19    11    25    1
    20    11    12    1
    21    11    13    1
    22    12    33    1
    23    13    14    1
    24    13    34    1
    25    13    35    1
    26    14    15    1
    27    14    36    1
    28    14    37    1
    29    15    16   am
    30    15    25    1
    31    16    17    2
    32    16    18    1
    33    18    19    1
    34    18    24    1
    35    18    20    1
    36    20    21    1
    37    20    38    1
    38    20    39    1
    39    21    22   am
    40    21    40    1
    41    22    23    2
    42    22    24   am
    43    24    41    1
    44    25    42    1
    45    25    43    1
@<TRIPOS>SUBSTRUCTURE
     1 ZINC001039825450        1 TEMP              0 ****  ****    0 ROOT


##########                                Name:    ZINC000285228948
##########                DOCK_Rotatable_Bonds:                   8
##########                         Heavy_Atoms:                  23
##########                    Molecular_Weight:             339.822
##########                DOCK_Rotatable_Bonds:                   8
##########                       Formal_Charge:           0.0299997
##########                     HBond_Acceptors:                   7
##########                        HBond_Donors:                   3
##########                         Heavy_Atoms:                  23
##########                          Grid_Score:          -35.164284
##########                     Grid_vdw_energy:          -33.017929
##########                      Grid_es_energy:           -2.146353
##########           Internal_energy_repulsive:           22.729856

@<TRIPOS>MOLECULE
ZINC000285228948
 45 46 1 0 0
SMALL
USER_CHARGES


@<TRIPOS>ATOM
      1 C1         -4.5921    5.4901   51.4732 C.3     1  <0>        -0.1600
      2 C2         -4.7322    4.1888   50.6807 C.3     1  <0>         0.1800
      3 H3         -5.0422    4.4162   49.6608 H       1  <0>         0.1100
      4 C4         -5.7666    3.3105   51.3362 C.ar    1  <0>        -0.0900
      5 C5         -5.4021    2.4656   52.3679 C.ar    1  <0>        -0.1000
      6 C6         -6.3502    1.6598   52.9694 C.ar    1  <0>        -0.1100
      7 C7         -7.6644    1.6987   52.5388 C.ar    1  <0>        -0.0300
      8 Cl8        -8.8561    0.6873   53.2942 Cl      1  <0>        -0.0700
      9 C9         -8.0287    2.5445   51.5062 C.ar    1  <0>        -0.1100
     10 C10        -7.0807    3.3540   50.9093 C.ar    1  <0>        -0.0900
     11 N11        -3.4442    3.4913   50.6557 N.am    1  <0>        -0.6100
     12 C12        -2.3850    3.8751   51.5921 C.3     1  <0>         0.0600
     13 C13        -3.2338    2.4963   49.7713 C.2     1  <0>         0.5200
     14 O14        -4.1114    2.1774   48.9971 O.2     1  <0>        -0.5200
     15 C15        -1.9083    1.7798   49.7442 C.3     1  <0>         0.0300
     16 N16        -1.9216    0.7653   48.6820 N.3     1  <0>        -0.4900
     17 C17        -0.8880   -0.2733   48.9250 C.3     1  <0>         0.0400
     18 C18        -0.6863   -0.9071   47.5257 C.3     1  <0>        -0.1400
     19 C19        -0.8033    0.3072   46.5761 C.3     1  <0>         0.1100
     20 O20         0.4948    0.8018   46.2411 O.3     1  <0>        -0.5400
     21 C21        -1.5544   -0.0759   45.3270 C.2     1  <0>         0.5000
     22 N22        -2.0883    0.8804   44.5417 N.am    1  <0>        -0.8500
     23 O23        -1.6784   -1.2449   45.0285 O.2     1  <0>        -0.5200
     24 C24        -1.5897    1.3656   47.3716 C.3     1  <0>         0.0600
     25 H25        -5.5504    6.0091   51.4919 H       1  <0>         0.0700
     26 H26        -4.2821    5.2628   52.4932 H       1  <0>         0.0600
     27 H27        -3.8440    6.1254   50.9992 H       1  <0>         0.0700
     28 H28        -4.3761    2.4350   52.7037 H       1  <0>         0.1400
     29 H29        -6.0652    0.9995   53.7752 H       1  <0>         0.1300
     30 H30        -9.0543    2.5751   51.1694 H       1  <0>         0.1400
     31 H31        -7.3650    4.0145   50.1034 H       1  <0>         0.1300
     32 H32        -2.5032    3.3193   52.5222 H       1  <0>         0.0600
     33 H33        -1.4130    3.6480   51.1541 H       1  <0>         0.0800
     34 H34        -2.4505    4.9438   51.7965 H       1  <0>         0.0800
     35 H35        -1.1112    2.4978   49.5512 H       1  <0>         0.1100
     36 H36        -1.7369    1.2966   50.7061 H       1  <0>         0.0700
     37 H37         0.0377    0.1805   49.2788 H       1  <0>         0.0400
     38 H38        -1.2494   -1.0168   49.6356 H       1  <0>         0.1200
     39 H39         0.3001   -1.3641   47.4477 H       1  <0>         0.0900
     40 H40        -1.4684   -1.6371   47.3165 H       1  <0>         0.0900
     41 H41         1.2180    0.3467   46.6939 H       1  <0>         0.3800
     42 H42        -2.5728    0.6338   43.7384 H       1  <0>         0.4000
     43 H43        -1.9882    1.8154   44.7799 H       1  <0>         0.4100
     44 H44        -2.5049    1.6257   46.8398 H       1  <0>         0.1100
     45 H45        -0.9752    2.2544   47.5153 H       1  <0>         0.0700
@<TRIPOS>BOND
     1     1     2    1
     2     1    25    1
     3     1    26    1
     4     1    27    1
     5     2     3    1
     6     2     4    1
     7     2    11    1
     8     4    10   ar
     9     4     5   ar
    10     5     6   ar
    11     5    28    1
    12     6     7   ar
    13     6    29    1
    14     7     8    1
    15     7     9   ar
    16     9    10   ar
    17     9    30    1
    18    10    31    1
    19    11    12    1
    20    11    13   am
    21    12    32    1
    22    12    33    1
    23    12    34    1
    24    13    14    2
    25    13    15    1
    26    15    16    1
    27    15    35    1
    28    15    36    1
    29    16    24    1
    30    16    17    1
    31    17    18    1
    32    17    37    1
    33    17    38    1
    34    18    19    1
    35    18    39    1
    36    18    40    1
    37    19    20    1
    38    19    21    1
    39    19    24    1
    40    20    41    1
    41    21    22   am
    42    21    23    2
    43    22    42    1
    44    22    43    1
    45    24    44    1
    46    24    45    1
@<TRIPOS>SUBSTRUCTURE
     1 <0>         1 TEMP              0 ****  ****    0 ROOT


##########                                Name:    ZINC000859496582
##########                DOCK_Rotatable_Bonds:                  10
##########                         Heavy_Atoms:                  26
##########                    Molecular_Weight:             361.438
##########                DOCK_Rotatable_Bonds:                  10
##########                       Formal_Charge:           0.0100006
##########                     HBond_Acceptors:                   6
##########                        HBond_Donors:                   0
##########                         Heavy_Atoms:                  26
##########                          Grid_Score:          -35.162495
##########                     Grid_vdw_energy:          -32.718872
##########                      Grid_es_energy:           -2.443621
##########           Internal_energy_repulsive:           21.851620

@<TRIPOS>MOLECULE
ZINC000859496582
 53 54 1 0 0
SMALL
USER_CHARGES


@<TRIPOS>ATOM
      1 C1         -0.5578   -1.2116   48.5699 C.3     1  ZINC000859496582    0.0300
      2 O2         -1.2610   -0.4761   47.5341 O.3     1  ZINC000859496582   -0.3600
      3 C3         -1.1386    0.8606   47.5461 C.2     1  ZINC000859496582    0.4600
      4 O4         -1.7001    1.5261   46.7084 O.2     1  ZINC000859496582   -0.5100
      5 C5         -0.3009    1.5311   48.6042 C.3     1  ZINC000859496582   -0.1100
      6 C6         -0.9972    2.8113   49.0705 C.3     1  ZINC000859496582   -0.1100
      7 C7         -1.9167    2.4907   50.2507 C.3     1  ZINC000859496582   -0.1200
      8 C8         -3.2550    3.2086   50.0642 C.3     1  ZINC000859496582    0.0700
      9 O9         -4.2073    2.7196   51.0451 O.3     1  ZINC000859496582   -0.3500
     10 C10        -5.2073    1.9476   50.5914 C.2     1  ZINC000859496582    0.4700
     11 O11        -5.0571    1.2928   49.5872 O.2     1  ZINC000859496582   -0.5000
     12 C12        -6.5174    1.8977   51.3347 C.3     1  ZINC000859496582   -0.1000
     13 H13        -7.3415    1.9435   50.6229 H       1  ZINC000859496582    0.1200
     14 C14        -6.6053    3.0860   52.2951 C.3     1  ZINC000859496582   -0.1100
     15 C15        -7.9492    3.0546   53.0265 C.3     1  ZINC000859496582   -0.1300
     16 C16        -8.0508    1.7632   53.8444 C.3     1  ZINC000859496582    0.1100
     17 N17        -7.8227    0.6188   52.9517 N.am    1  ZINC000859496582   -0.6100
     18 C18        -8.7157   -0.3884   52.8847 C.2     1  ZINC000859496582    0.5700
     19 O19        -8.5156   -1.3297   52.1421 O.2     1  ZINC000859496582   -0.5300
     20 C20        -9.9387   -0.3484   53.7144 C.ar    1  ZINC000859496582   -0.1400
     21 C21        -9.9308   -0.8889   55.0013 C.ar    1  ZINC000859496582   -0.0900
     22 C22       -11.0752   -0.8479   55.7704 C.ar    1  ZINC000859496582   -0.1200
     23 C23       -12.2295   -0.2731   55.2687 C.ar    1  ZINC000859496582   -0.0600
     24 C24       -13.4761   -0.2323   56.1144 C.3     1  ZINC000859496582   -0.1200
     25 C25       -12.2440    0.2649   53.9940 C.ar    1  ZINC000859496582   -0.1200
     26 C26       -11.1047    0.2351   53.2165 C.ar    1  ZINC000859496582   -0.0600
     27 C27        -6.6030    0.5929   52.1328 C.3     1  ZINC000859496582    0.1100
     28 H28        -0.9167   -0.8935   49.5487 H       1  ZINC000859496582    0.0600
     29 H29        -0.7404   -2.2790   48.4452 H       1  ZINC000859496582    0.1000
     30 H30         0.5114   -1.0146   48.4932 H       1  ZINC000859496582    0.0600
     31 H31        -0.1765    0.8561   49.4509 H       1  ZINC000859496582    0.1100
     32 H32         0.6766    1.7793   48.1906 H       1  ZINC000859496582    0.1100
     33 H33        -0.2483    3.5398   49.3808 H       1  ZINC000859496582    0.0800
     34 H34        -1.5873    3.2229   48.2517 H       1  ZINC000859496582    0.0800
     35 H35        -2.0851    1.4149   50.2984 H       1  ZINC000859496582    0.0800
     36 H36        -1.4501    2.8269   51.1766 H       1  ZINC000859496582    0.0800
     37 H37        -3.1138    4.2811   50.1981 H       1  ZINC000859496582    0.0700
     38 H38        -3.6345    3.0145   49.0610 H       1  ZINC000859496582    0.0700
     39 H39        -5.7949    3.0265   53.0217 H       1  ZINC000859496582    0.0800
     40 H40        -6.5201    4.0152   51.7318 H       1  ZINC000859496582    0.0800
     41 H41        -8.0209    3.9141   53.6930 H       1  ZINC000859496582    0.0900
     42 H42        -8.7603    3.0891   52.2990 H       1  ZINC000859496582    0.0700
     43 H43        -7.2966    1.7690   54.6313 H       1  ZINC000859496582    0.0700
     44 H44        -9.0438    1.6887   54.2878 H       1  ZINC000859496582    0.1000
     45 H45        -9.0307   -1.3385   55.3939 H       1  ZINC000859496582    0.1300
     46 H46       -11.0704   -1.2658   56.7663 H       1  ZINC000859496582    0.1300
     47 H47       -13.4888    0.6877   56.6987 H       1  ZINC000859496582    0.0800
     48 H48       -14.3540   -0.2650   55.4693 H       1  ZINC000859496582    0.0700
     49 H49       -13.4871   -1.0901   56.7868 H       1  ZINC000859496582    0.0700
     50 H50       -13.1480    0.7125   53.6084 H       1  ZINC000859496582    0.1300
     51 H51       -11.1173    0.6558   52.2217 H       1  ZINC000859496582    0.1300
     52 H52        -6.6409   -0.2538   51.4474 H       1  ZINC000859496582    0.1100
     53 H53        -5.7303    0.5033   52.7798 H       1  ZINC000859496582    0.0800
@<TRIPOS>BOND
     1     1     2    1
     2     1    28    1
     3     1    29    1
     4     1    30    1
     5     2     3    1
     6     3     4    2
     7     3     5    1
     8     5     6    1
     9     5    31    1
    10     5    32    1
    11     6     7    1
    12     6    33    1
    13     6    34    1
    14     7     8    1
    15     7    35    1
    16     7    36    1
    17     8     9    1
    18     8    37    1
    19     8    38    1
    20     9    10    1
    21    10    11    2
    22    10    12    1
    23    12    13    1
    24    12    27    1
    25    12    14    1
    26    14    15    1
    27    14    39    1
    28    14    40    1
    29    15    16    1
    30    15    41    1
    31    15    42    1
    32    16    17    1
    33    16    43    1
    34    16    44    1
    35    17    18   am
    36    17    27    1
    37    18    19    2
    38    18    20    1
    39    20    26   ar
    40    20    21   ar
    41    21    22   ar
    42    21    45    1
    43    22    23   ar
    44    22    46    1
    45    23    24    1
    46    23    25   ar
    47    24    47    1
    48    24    48    1
    49    24    49    1
    50    25    26   ar
    51    25    50    1
    52    26    51    1
    53    27    52    1
    54    27    53    1
@<TRIPOS>SUBSTRUCTURE
     1 ZINC000859496582        1 TEMP              0 ****  ****    0 ROOT


##########                                Name:    ZINC000265786263
##########                DOCK_Rotatable_Bonds:                   7
##########                         Heavy_Atoms:                  28
##########                    Molecular_Weight:             386.451
##########                DOCK_Rotatable_Bonds:                   7
##########                       Formal_Charge:           0.0499992
##########                     HBond_Acceptors:                   8
##########                        HBond_Donors:                   2
##########                         Heavy_Atoms:                  28
##########                          Grid_Score:          -35.154564
##########                     Grid_vdw_energy:          -31.560104
##########                      Grid_es_energy:           -3.594461
##########           Internal_energy_repulsive:           22.471443

@<TRIPOS>MOLECULE
ZINC000265786263
 54 57 1 0 0
SMALL
USER_CHARGES


@<TRIPOS>ATOM
      1 C1         -0.1390    1.8018   46.5797 C.3     1  ZINC000265786263   -0.1500
      2 C2         -0.7630    1.2321   47.8552 C.3     1  ZINC000265786263    0.1600
      3 C3         -0.9653   -0.2789   47.7251 C.3     1  ZINC000265786263   -0.1600
      4 C4          0.2580   -1.1753   47.9268 C.3     1  ZINC000265786263   -0.1600
      5 C5         -0.8352   -1.1210   48.9958 C.3     1  ZINC000265786263   -0.1600
      6 N6          0.0728    1.5474   49.0265 N.am    1  ZINC000265786263   -0.7100
      7 C7         -0.6825    2.3000   49.8468 C.2     1  ZINC000265786263    0.7100
      8 O8         -0.2944    2.7349   50.9133 O.2     1  ZINC000265786263   -0.5400
      9 N9         -1.9088    2.5162   49.3574 N.am    1  ZINC000265786263   -0.5600
     10 C10        -2.9401    3.3026   50.0389 C.3     1  ZINC000265786263    0.1000
     11 C11        -3.9857    2.3767   50.6050 C.2     1  ZINC000265786263    0.5100
     12 O12        -4.0608    1.2327   50.2095 O.2     1  ZINC000265786263   -0.5300
     13 N13        -4.8374    2.8200   51.5508 N.am    1  ZINC000265786263   -0.6100
     14 C14        -4.7688    4.2058   52.0388 C.3     1  ZINC000265786263    0.1100
     15 C15        -6.1704    4.8200   51.9587 C.3     1  ZINC000265786263    0.0400
     16 N16        -7.1214    3.9568   52.6717 N.3     1  ZINC000265786263   -0.5300
     17 C17        -8.4417    4.5937   52.7663 C.3     1  ZINC000265786263    0.0900
     18 C18        -9.3164    4.1065   51.6399 C.ar    1  ZINC000265786263   -0.0600
     19 C19       -10.2877    3.1532   51.8825 C.ar    1  ZINC000265786263   -0.1300
     20 C20       -11.0919    2.7040   50.8511 C.ar    1  ZINC000265786263   -0.1000
     21 C21       -10.9264    3.2071   49.5755 C.ar    1  ZINC000265786263   -0.1400
     22 C22        -9.9521    4.1640   49.3294 C.ar    1  ZINC000265786263    0.1100
     23 O23        -9.7876    4.6608   48.0752 O.3     1  ZINC000265786263   -0.5000
     24 C24        -9.1505    4.6170   50.3668 C.ar    1  ZINC000265786263   -0.1200
     25 C25        -7.2187    2.6348   52.0389 C.3     1  ZINC000265786263    0.0400
     26 C26        -5.8641    1.9326   52.1178 C.3     1  ZINC000265786263    0.1200
     27 C27        -2.0780    1.9220   48.1597 C.2     1  ZINC000265786263    0.5400
     28 O28        -3.0743    1.9368   47.4691 O.2     1  ZINC000265786263   -0.4500
     29 H29         0.0321    2.8710   46.7051 H       1  ZINC000265786263    0.0700
     30 H30         0.8100    1.3023   46.3851 H       1  ZINC000265786263    0.0800
     31 H31        -0.8147    1.6380   45.7402 H       1  ZINC000265786263    0.0900
     32 H32        -1.7034   -0.5924   46.9868 H       1  ZINC000265786263    0.1100
     33 H33         0.3250   -2.0791   47.3209 H       1  ZINC000265786263    0.1000
     34 H34         1.2069   -0.6888   48.1521 H       1  ZINC000265786263    0.1100
     35 H35        -0.6055   -0.5987   49.9245 H       1  ZINC000265786263    0.1000
     36 H36        -1.4874   -1.9890   49.0933 H       1  ZINC000265786263    0.1000
     37 H37         0.9889    1.2666   49.1773 H       1  ZINC000265786263    0.4400
     38 H38        -2.4854    3.8749   50.8476 H       1  ZINC000265786263    0.1300
     39 H39        -3.4056    3.9851   49.3280 H       1  ZINC000265786263    0.1300
     40 H40        -4.4244    4.2131   53.0729 H       1  ZINC000265786263    0.0900
     41 H41        -4.0814    4.7794   51.4169 H       1  ZINC000265786263    0.0900
     42 H42        -6.1611    5.8084   52.4183 H       1  ZINC000265786263    0.0900
     43 H43        -6.4703    4.9069   50.9144 H       1  ZINC000265786263    0.0400
     44 H44        -8.9015    4.3367   53.7206 H       1  ZINC000265786263    0.0900
     45 H45        -8.3291    5.6756   52.6969 H       1  ZINC000265786263    0.0500
     46 H46       -10.4185    2.7583   52.8792 H       1  ZINC000265786263    0.1200
     47 H47       -11.8498    1.9590   51.0432 H       1  ZINC000265786263    0.1300
     48 H48       -11.5545    2.8557   48.7702 H       1  ZINC000265786263    0.1300
     49 H49       -10.4029    4.2966   47.4241 H       1  ZINC000265786263    0.3900
     50 H50        -8.3915    5.3617   50.1777 H       1  ZINC000265786263    0.1300
     51 H51        -7.9699    2.0381   52.5565 H       1  ZINC000265786263    0.1000
     52 H52        -7.5041    2.7520   50.9935 H       1  ZINC000265786263    0.0400
     53 H53        -5.9002    1.0024   51.5508 H       1  ZINC000265786263    0.1000
     54 H54        -5.6217    1.7206   53.1593 H       1  ZINC000265786263    0.0800
@<TRIPOS>BOND
     1     1     2    1
     2     1    29    1
     3     1    30    1
     4     1    31    1
     5     2    27    1
     6     2     3    1
     7     2     6    1
     8     3     5    1
     9     3     4    1
    10     3    32    1
    11     4     5    1
    12     4    33    1
    13     4    34    1
    14     5    35    1
    15     5    36    1
    16     6     7   am
    17     6    37    1
    18     7     8    2
    19     7     9   am
    20     9    10    1
    21     9    27   am
    22    10    11    1
    23    10    38    1
    24    10    39    1
    25    11    12    2
    26    11    13   am
    27    13    26    1
    28    13    14    1
    29    14    15    1
    30    14    40    1
    31    14    41    1
    32    15    16    1
    33    15    42    1
    34    15    43    1
    35    16    17    1
    36    16    25    1
    37    17    18    1
    38    17    44    1
    39    17    45    1
    40    18    24   ar
    41    18    19   ar
    42    19    20   ar
    43    19    46    1
    44    20    21   ar
    45    20    47    1
    46    21    22   ar
    47    21    48    1
    48    22    23    1
    49    22    24   ar
    50    23    49    1
    51    24    50    1
    52    25    26    1
    53    25    51    1
    54    25    52    1
    55    26    53    1
    56    26    54    1
    57    27    28    2
@<TRIPOS>SUBSTRUCTURE
     1 ZINC000265786263        1 TEMP              0 ****  ****    0 ROOT


##########                                Name:    ZINC000543625960
##########                DOCK_Rotatable_Bonds:                   8
##########                         Heavy_Atoms:                  29
##########                    Molecular_Weight:             416.544
##########                DOCK_Rotatable_Bonds:                   8
##########                       Formal_Charge:           -0.010001
##########                     HBond_Acceptors:                   8
##########                        HBond_Donors:                   2
##########                         Heavy_Atoms:                  29
##########                          Grid_Score:          -35.097878
##########                     Grid_vdw_energy:          -33.704659
##########                      Grid_es_energy:           -1.393219
##########           Internal_energy_repulsive:           16.116236

@<TRIPOS>MOLECULE
ZINC000543625960
 57 59 1 0 0
SMALL
USER_CHARGES


@<TRIPOS>ATOM
      1 C1         -9.4803    4.6537   49.5001 C.3     1  ZINC000543625960   -0.1500
      2 C2         -9.1472    4.6019   50.9925 C.3     1  ZINC000543625960   -0.1300
      3 C3         -7.6576    4.3024   51.1725 C.3     1  ZINC000543625960    0.1500
      4 H4         -7.4647    4.0286   52.2097 H       1  ZINC000543625960    0.0800
      5 C5         -6.8404    5.5449   50.8127 C.3     1  ZINC000543625960   -0.1700
      6 N6         -7.2728    3.1940   50.2952 N.am    1  ZINC000543625960   -1.1100
      7 S7         -6.3528    1.9507   50.8868 S.o2    1  ZINC000543625960    2.7000
      8 O8         -7.0271    1.4660   52.0399 O.2     1  ZINC000543625960   -0.9600
      9 O9         -6.0261    1.1288   49.7746 O.2     1  ZINC000543625960   -0.9500
     10 C10        -4.8367    2.6474   51.4531 C.ar    1  ZINC000543625960   -0.6600
     11 C11        -4.7249    3.0896   52.7583 C.ar    1  ZINC000543625960   -0.0400
     12 C12        -3.5366    3.6371   53.2067 C.ar    1  ZINC000543625960   -0.1200
     13 C13        -2.4577    3.7437   52.3514 C.ar    1  ZINC000543625960   -0.0600
     14 C14        -2.5666    3.3000   51.0398 C.ar    1  ZINC000543625960    0.1500
     15 N15        -1.4751    3.4065   50.1705 N.am    1  ZINC000543625960   -0.6800
     16 C16        -0.8496    2.2951   49.7349 C.2     1  ZINC000543625960    0.7200
     17 O17        -1.2336    1.1998   50.0971 O.2     1  ZINC000543625960   -0.5600
     18 N18         0.2017    2.3976   48.8977 N.am    1  ZINC000543625960   -0.6300
     19 C19         0.7692    3.6565   48.3815 C.3     1  ZINC000543625960    0.0900
     20 C20         2.2361    3.3120   48.0217 C.3     1  ZINC000543625960   -0.1000
     21 H21         2.6197    3.9874   47.2570 H       1  ZINC000543625960    0.1000
     22 C22         3.1259    3.3353   49.2662 C.3     1  ZINC000543625960   -0.1500
     23 C23         2.0906    1.8699   47.4680 C.3     1  ZINC000543625960   -0.1200
     24 C24         0.9762    1.2729   48.3530 C.3     1  ZINC000543625960    0.2000
     25 H25         1.4174    0.6931   49.1638 H       1  ZINC000543625960    0.0900
     26 C26         0.0789    0.3919   47.5226 C.ar    1  ZINC000543625960   -0.1400
     27 C27        -0.5360    0.8902   46.3845 C.ar    1  ZINC000543625960   -0.0600
     28 C28        -1.3528    0.0430   45.6510 C.ar    1  ZINC000543625960   -0.1700
     29 C29        -1.5255   -1.2605   46.0758 C.ar    1  ZINC000543625960    0.1000
     30 N30        -0.9244   -1.7006   47.1641 N.ar    1  ZINC000543625960   -0.4800
     31 C31        -0.1368   -0.9250   47.8830 C.ar    1  ZINC000543625960    0.1200
     32 C32        -3.7593    2.7460   50.5943 C.ar    1  ZINC000543625960   -0.0500
     33 H33       -10.5415    4.8670   49.3720 H       1  ZINC000543625960    0.0600
     34 H34        -8.8919    5.4376   49.0234 H       1  ZINC000543625960    0.0600
     35 H35        -9.2448    3.6931   49.0418 H       1  ZINC000543625960    0.0500
     36 H36        -9.3826    5.5625   51.4508 H       1  ZINC000543625960    0.0700
     37 H37        -9.7356    3.8180   51.4692 H       1  ZINC000543625960    0.0800
     38 H38        -7.1267    6.3695   51.4655 H       1  ZINC000543625960    0.0700
     39 H39        -5.7792    5.3315   50.9410 H       1  ZINC000543625960    0.0700
     40 H40        -7.0332    5.8188   49.7754 H       1  ZINC000543625960    0.0600
     41 H41        -7.5568    3.1885   49.3677 H       1  ZINC000543625960    0.4200
     42 H42        -5.5673    3.0078   53.4291 H       1  ZINC000543625960    0.1400
     43 H43        -3.4526    3.9820   54.2266 H       1  ZINC000543625960    0.1400
     44 H44        -1.5302    4.1719   52.7018 H       1  ZINC000543625960    0.1400
     45 H45        -1.1687    4.2802   49.8815 H       1  ZINC000543625960    0.4100
     46 H46         0.2270    3.9811   47.4934 H       1  ZINC000543625960    0.0700
     47 H47         0.7385    4.4295   49.1494 H       1  ZINC000543625960    0.0800
     48 H48         2.7466    2.6217   49.9976 H       1  ZINC000543625960    0.0600
     49 H49         4.1450    3.0649   48.9892 H       1  ZINC000543625960    0.0600
     50 H50         3.1204    4.3361   49.6981 H       1  ZINC000543625960    0.0600
     51 H51         1.7885    1.8875   46.4209 H       1  ZINC000543625960    0.0800
     52 H52         3.0192    1.3132   47.5933 H       1  ZINC000543625960    0.0900
     53 H53        -0.3828    1.9140   46.0766 H       1  ZINC000543625960    0.1300
     54 H54        -1.8481    0.3976   44.7591 H       1  ZINC000543625960    0.1400
     55 H55        -2.1604   -1.9265   45.5103 H       1  ZINC000543625960    0.1600
     56 H56         0.3384   -1.3209   48.7684 H       1  ZINC000543625960    0.1400
     57 H57        -3.8472    2.4000   49.5749 H       1  ZINC000543625960    0.1400
@<TRIPOS>BOND
     1     1     2    1
     2     1    33    1
     3     1    34    1
     4     1    35    1
     5     2     3    1
     6     2    36    1
     7     2    37    1
     8     3     4    1
     9     3     5    1
    10     3     6    1
    11     5    38    1
    12     5    39    1
    13     5    40    1
    14     6     7   am
    15     6    41    1
    16     7     8    2
    17     7     9    2
    18     7    10    1
    19    10    32   ar
    20    10    11   ar
    21    11    12   ar
    22    11    42    1
    23    12    13   ar
    24    12    43    1
    25    13    14   ar
    26    13    44    1
    27    14    15    1
    28    14    32   ar
    29    15    16   am
    30    15    45    1
    31    16    17    2
    32    16    18   am
    33    18    24    1
    34    18    19    1
    35    19    20    1
    36    19    46    1
    37    19    47    1
    38    20    21    1
    39    20    22    1
    40    20    23    1
    41    22    48    1
    42    22    49    1
    43    22    50    1
    44    23    24    1
    45    23    51    1
    46    23    52    1
    47    24    25    1
    48    24    26    1
    49    26    31   ar
    50    26    27   ar
    51    27    28   ar
    52    27    53    1
    53    28    29   ar
    54    28    54    1
    55    29    30   ar
    56    29    55    1
    57    30    31   ar
    58    31    56    1
    59    32    57    1
@<TRIPOS>SUBSTRUCTURE
     1 ZINC000543625960        1 TEMP              0 ****  ****    0 ROOT


##########                                Name:    ZINC000051488227
##########                DOCK_Rotatable_Bonds:                   8
##########                         Heavy_Atoms:                  30
##########                    Molecular_Weight:             403.478
##########                DOCK_Rotatable_Bonds:                   8
##########                       Formal_Charge:           0.0199996
##########                     HBond_Acceptors:                   5
##########                        HBond_Donors:                   0
##########                         Heavy_Atoms:                  30
##########                          Grid_Score:          -35.095749
##########                     Grid_vdw_energy:          -34.217796
##########                      Grid_es_energy:           -0.877954
##########           Internal_energy_repulsive:           24.259586

@<TRIPOS>MOLECULE
ZINC000051488227
 55 58 1 0 0
SMALL
USER_CHARGES


@<TRIPOS>ATOM
      1 O1         -2.7840    2.0565   47.2682 O.2     1  ZINC000051488227   -0.5000
      2 C2         -2.3535    1.7879   48.3648 C.2     1  ZINC000051488227    0.4800
      3 O3         -3.2004    1.5575   49.3804 O.3     1  ZINC000051488227   -0.3400
      4 C4         -4.3126    2.4785   49.5330 C.3     1  ZINC000051488227    0.1100
      5 C5         -5.1315    2.0823   50.7345 C.ar    1  ZINC000051488227   -0.1400
      6 C6         -5.1011    2.8601   51.8772 C.ar    1  ZINC000051488227   -0.0500
      7 C7         -5.8508    2.4991   52.9800 C.ar    1  ZINC000051488227   -0.1500
      8 C8         -6.6350    1.3553   52.9400 C.ar    1  ZINC000051488227    0.1500
      9 O9         -7.3738    0.9984   54.0233 O.3     1  ZINC000051488227   -0.3100
     10 C10        -7.2860    1.8406   55.1744 C.3     1  ZINC000051488227    0.1100
     11 C11        -8.1244    1.2621   56.2852 C.ar    1  ZINC000051488227    0.1200
     12 C12        -7.7614    1.4820   57.6001 C.ar    1  ZINC000051488227   -0.1500
     13 C13        -8.5399    0.9457   58.6147 C.ar    1  ZINC000051488227   -0.0700
     14 C14        -9.6591    0.2053   58.2664 C.ar    1  ZINC000051488227   -0.1700
     15 C15        -9.9595    0.0275   56.9289 C.ar    1  ZINC000051488227    0.1100
     16 N16        -9.1990    0.5566   55.9908 N.ar    1  ZINC000051488227   -0.4800
     17 C17        -6.6641    0.5770   51.7920 C.ar    1  ZINC000051488227   -0.2100
     18 C18        -5.9163    0.9449   50.6903 C.ar    1  ZINC000051488227   -0.0500
     19 C19        -0.8658    1.7053   48.5908 C.3     1  ZINC000051488227    0.0000
     20 C20        -0.3643    3.0196   49.1313 C.ar    1  ZINC000051488227   -0.0900
     21 C21        -0.8216    3.4854   50.3498 C.ar    1  ZINC000051488227   -0.1100
     22 C22        -0.3615    4.6910   50.8457 C.ar    1  ZINC000051488227   -0.1200
     23 C23         0.5561    5.4305   50.1233 C.ar    1  ZINC000051488227   -0.1100
     24 C24         1.0140    4.9642   48.9052 C.ar    1  ZINC000051488227   -0.1200
     25 C25         0.5573    3.7566   48.4113 C.ar    1  ZINC000051488227   -0.1000
     26 C26        -0.5610    0.5874   49.5926 C.3     1  ZINC000051488227   -0.1400
     27 C27        -1.0042   -0.7529   49.0003 C.3     1  ZINC000051488227    0.0600
     28 O28        -0.3364   -0.9660   47.7550 O.3     1  ZINC000051488227   -0.3800
     29 C29        -0.6214    0.0229   46.7634 C.3     1  ZINC000051488227    0.0500
     30 C30        -0.1627    1.3944   47.2660 C.3     1  ZINC000051488227   -0.1400
     31 H31        -3.9306    3.4899   49.6710 H       1  ZINC000051488227    0.0800
     32 H32        -4.9374    2.4446   48.6404 H       1  ZINC000051488227    0.0800
     33 H33        -4.4904    3.7504   51.9079 H       1  ZINC000051488227    0.1300
     34 H34        -5.8262    3.1066   53.8726 H       1  ZINC000051488227    0.1400
     35 H35        -6.2474    1.9052   55.4990 H       1  ZINC000051488227    0.0900
     36 H36        -7.6512    2.8367   54.9245 H       1  ZINC000051488227    0.0900
     37 H37        -6.8823    2.0637   57.8349 H       1  ZINC000051488227    0.1400
     38 H38        -8.2804    1.1009   59.6515 H       1  ZINC000051488227    0.1400
     39 H39       -10.2879   -0.2274   59.0304 H       1  ZINC000051488227    0.1400
     40 H40       -10.8294   -0.5483   56.6493 H       1  ZINC000051488227    0.1600
     41 H41        -7.2735   -0.3140   51.7585 H       1  ZINC000051488227    0.1300
     42 H42        -5.9389    0.3394   49.7961 H       1  ZINC000051488227    0.1300
     43 H43        -1.5385    2.9076   50.9142 H       1  ZINC000051488227    0.1300
     44 H44        -0.7194    5.0553   51.7973 H       1  ZINC000051488227    0.1300
     45 H45         0.9150    6.3728   50.5104 H       1  ZINC000051488227    0.1200
     46 H46         1.7308    5.5422   48.3406 H       1  ZINC000051488227    0.1200
     47 H47         0.9151    3.3924   47.4596 H       1  ZINC000051488227    0.1300
     48 H48         0.5100    0.5604   49.7937 H       1  ZINC000051488227    0.0900
     49 H49        -1.1021    0.7723   50.5206 H       1  ZINC000051488227    0.0900
     50 H50        -0.7507   -1.5571   49.6909 H       1  ZINC000051488227    0.1000
     51 H51        -2.0819   -0.7397   48.8373 H       1  ZINC000051488227    0.0500
     52 H52        -0.0921   -0.2225   45.8427 H       1  ZINC000051488227    0.1000
     53 H53        -1.6940    0.0463   46.5711 H       1  ZINC000051488227    0.0700
     54 H54        -0.4191    2.1563   46.5300 H       1  ZINC000051488227    0.0900
     55 H55         0.9163    1.3837   47.4200 H       1  ZINC000051488227    0.0900
@<TRIPOS>BOND
     1     1     2    2
     2     2     3    1
     3     2    19    1
     4     3     4    1
     5     4     5    1
     6     4    31    1
     7     4    32    1
     8     5    18   ar
     9     5     6   ar
    10     6     7   ar
    11     6    33    1
    12     7     8   ar
    13     7    34    1
    14     8     9    1
    15     8    17   ar
    16     9    10    1
    17    10    11    1
    18    10    35    1
    19    10    36    1
    20    11    16   ar
    21    11    12   ar
    22    12    13   ar
    23    12    37    1
    24    13    14   ar
    25    13    38    1
    26    14    15   ar
    27    14    39    1
    28    15    16   ar
    29    15    40    1
    30    17    18   ar
    31    17    41    1
    32    18    42    1
    33    19    30    1
    34    19    20    1
    35    19    26    1
    36    20    25   ar
    37    20    21   ar
    38    21    22   ar
    39    21    43    1
    40    22    23   ar
    41    22    44    1
    42    23    24   ar
    43    23    45    1
    44    24    25   ar
    45    24    46    1
    46    25    47    1
    47    26    27    1
    48    26    48    1
    49    26    49    1
    50    27    28    1
    51    27    50    1
    52    27    51    1
    53    28    29    1
    54    29    30    1
    55    29    52    1
    56    29    53    1
    57    30    54    1
    58    30    55    1
@<TRIPOS>SUBSTRUCTURE
     1 ZINC000051488227        1 TEMP              0 ****  ****    0 ROOT


##########                                Name:    ZINC001077846158
##########                DOCK_Rotatable_Bonds:                   7
##########                         Heavy_Atoms:                  24
##########                    Molecular_Weight:             350.442
##########                DOCK_Rotatable_Bonds:                   7
##########                       Formal_Charge:          -0.0600002
##########                     HBond_Acceptors:                   8
##########                        HBond_Donors:                   2
##########                         Heavy_Atoms:                  24
##########                          Grid_Score:          -35.088371
##########                     Grid_vdw_energy:          -33.233326
##########                      Grid_es_energy:           -1.855045
##########           Internal_energy_repulsive:            6.776870

@<TRIPOS>MOLECULE
ZINC001077846158
 46 48 1 0 0
SMALL
USER_CHARGES


@<TRIPOS>ATOM
      1 C1          1.6814    0.5242   43.0754 C.3     1  ZINC001077846158   -0.0700
      2 C2          0.2574    0.4970   43.5681 C.2     1  ZINC001077846158    0.0100
      3 C3         -0.1496    0.7190   44.8288 C.2     1  ZINC001077846158   -0.0500
      4 C4          0.7295    1.0410   46.0098 C.3     1  ZINC001077846158    0.1300
      5 N5         -0.0077    0.7822   47.2538 N.3     1  ZINC001077846158   -0.5100
      6 C6          0.8798    0.1843   48.2838 C.3     1  ZINC001077846158    0.0000
      7 C7          0.1291    0.4715   49.6085 C.3     1  ZINC001077846158    0.1000
      8 H8         -0.6634   -0.2594   49.7691 H       1  ZINC001077846158    0.0800
      9 O9          1.0367    0.4811   50.7122 O.3     1  ZINC001077846158   -0.5600
     10 C10        -0.4646    1.8790   49.3712 C.3     1  ZINC001077846158    0.1400
     11 H11         0.1794    2.6404   49.8111 H       1  ZINC001077846158    0.1100
     12 N12        -1.8126    1.9645   49.9386 N.am    1  ZINC001077846158   -0.7000
     13 C13        -2.2989    3.1543   50.3440 C.2     1  ZINC001077846158    0.6000
     14 O14        -1.6181    4.1569   50.2399 O.2     1  ZINC001077846158   -0.5300
     15 C15        -3.6545    3.2406   50.9127 C.2     1  ZINC001077846158    0.0100
     16 C16        -4.2531    4.4127   51.2221 C.2     1  ZINC001077846158   -0.2300
     17 S17        -5.8089    4.0884   51.8518 S.3     1  ZINC001077846158    0.2300
     18 C18        -5.5706    2.4076   51.6659 C.2     1  ZINC001077846158    0.0300
     19 C19        -6.5822    1.3518   52.0308 C.3     1  ZINC001077846158   -0.0200
     20 C20        -7.9566    2.0010   52.2053 C.3     1  ZINC001077846158   -0.1500
     21 C21        -6.6504    0.3044   50.9177 C.3     1  ZINC001077846158   -0.1500
     22 N22        -4.4098    2.1684   51.1657 N.2     1  ZINC001077846158   -0.4500
     23 C23        -0.5154    2.0413   47.8407 C.3     1  ZINC001077846158    0.0300
     24 O24        -1.4918    0.6001   44.8388 O.3     1  ZINC001077846158   -0.2100
     25 C25        -1.8855    0.3088   43.5919 C.2     1  ZINC001077846158    0.1800
     26 N26        -0.8353    0.2518   42.8236 N.2     1  ZINC001077846158   -0.4900
     27 H27         1.9360    1.5347   42.7556 H       1  ZINC001077846158    0.0800
     28 H28         2.3502    0.2185   43.8801 H       1  ZINC001077846158    0.0700
     29 H29         1.7881   -0.1608   42.2343 H       1  ZINC001077846158    0.0700
     30 H30         1.6219    0.4159   45.9796 H       1  ZINC001077846158    0.0600
     31 H31         1.0197    2.0909   45.9711 H       1  ZINC001077846158    0.1100
     32 H32         0.9840   -0.8891   48.1257 H       1  ZINC001077846158    0.0900
     33 H33         1.8550    0.6711   48.2809 H       1  ZINC001077846158    0.0600
     34 H34         1.5832   -0.3139   50.7789 H       1  ZINC001077846158    0.3900
     35 H35        -2.3551    1.1648   50.0226 H       1  ZINC001077846158    0.4100
     36 H36        -3.8195    5.3934   51.0926 H       1  ZINC001077846158    0.1900
     37 H37        -6.2860    0.8720   52.9637 H       1  ZINC001077846158    0.1000
     38 H38        -7.9080    2.7472   52.9984 H       1  ZINC001077846158    0.0600
     39 H39        -8.2528    2.4809   51.2725 H       1  ZINC001077846158    0.0600
     40 H40        -8.6882    1.2373   52.4693 H       1  ZINC001077846158    0.0700
     41 H41        -5.6713   -0.1580   50.7934 H       1  ZINC001077846158    0.0600
     42 H42        -7.3821   -0.4592   51.1816 H       1  ZINC001077846158    0.0700
     43 H43        -6.9466    0.7844   49.9849 H       1  ZINC001077846158    0.0600
     44 H44         0.1164    2.8750   47.5345 H       1  ZINC001077846158    0.0600
     45 H45        -1.5427    2.2130   47.5194 H       1  ZINC001077846158    0.0900
     46 H46        -2.9059    0.1515   43.2750 H       1  ZINC001077846158    0.2500
@<TRIPOS>BOND
     1     1     2    1
     2     1    27    1
     3     1    28    1
     4     1    29    1
     5     2    26    1
     6     2     3    2
     7     3     4    1
     8     3    24    1
     9     4     5    1
    10     4    30    1
    11     4    31    1
    12     5    23    1
    13     5     6    1
    14     6     7    1
    15     6    32    1
    16     6    33    1
    17     7     8    1
    18     7     9    1
    19     7    10    1
    20     9    34    1
    21    10    11    1
    22    10    12    1
    23    10    23    1
    24    12    13   am
    25    12    35    1
    26    13    14    2
    27    13    15    1
    28    15    22    1
    29    15    16    2
    30    16    17    1
    31    16    36    1
    32    17    18    1
    33    18    19    1
    34    18    22    2
    35    19    20    1
    36    19    21    1
    37    19    37    1
    38    20    38    1
    39    20    39    1
    40    20    40    1
    41    21    41    1
    42    21    42    1
    43    21    43    1
    44    23    44    1
    45    23    45    1
    46    24    25    1
    47    25    26    2
    48    25    46    1
@<TRIPOS>SUBSTRUCTURE
     1 ZINC001077846158        1 TEMP              0 ****  ****    0 ROOT


##########                                Name:    ZINC001220212140
##########                DOCK_Rotatable_Bonds:                   6
##########                         Heavy_Atoms:                  28
##########                    Molecular_Weight:             379.459
##########                DOCK_Rotatable_Bonds:                   6
##########                       Formal_Charge:         -0.00999925
##########                     HBond_Acceptors:                   6
##########                        HBond_Donors:                   1
##########                         Heavy_Atoms:                  28
##########                          Grid_Score:          -35.054302
##########                     Grid_vdw_energy:          -35.546741
##########                      Grid_es_energy:            0.492438
##########           Internal_energy_repulsive:           14.146083

@<TRIPOS>MOLECULE
ZINC001220212140
 53 56 1 0 0
SMALL
USER_CHARGES


@<TRIPOS>ATOM
      1 C1        -11.3913    0.6556   53.0793 C.3     1  ZINC001220212140   -0.1700
      2 C2        -10.2892    0.8955   54.1131 C.3     1  ZINC001220212140    0.0800
      3 H3        -10.6305    0.6183   55.1104 H       1  ZINC001220212140    0.1200
      4 C4         -9.0062    0.1171   53.7370 C.3     1  ZINC001220212140   -0.1100
      5 C5         -8.2323    1.1526   52.9440 C.ar    1  ZINC001220212140   -0.1500
      6 C6         -7.1520    1.0483   52.0972 C.ar    1  ZINC001220212140   -0.0700
      7 C7         -6.6384    2.1855   51.4856 C.ar    1  ZINC001220212140    0.1400
      8 N8         -5.5391    2.0856   50.6221 N.am    1  ZINC001220212140   -0.6800
      9 C9         -4.3502    2.6089   50.9815 C.2     1  ZINC001220212140    0.7200
     10 O10        -4.2313    3.1675   52.0549 O.2     1  ZINC001220212140   -0.5700
     11 N11        -3.2930    2.5129   50.1511 N.am    1  ZINC001220212140   -0.6300
     12 C12        -1.9449    3.0366   50.4162 C.3     1  ZINC001220212140    0.0900
     13 C13        -1.0642    2.6698   49.2032 C.3     1  ZINC001220212140   -0.1100
     14 C14        -1.8198    1.4688   48.5756 C.3     1  ZINC001220212140   -0.1300
     15 H15        -1.5715    0.5397   49.0887 H       1  ZINC001220212140    0.1200
     16 C16        -1.5324    1.3611   47.1001 C.2     1  ZINC001220212140    0.5300
     17 O17        -2.0320    2.1498   46.3259 O.2     1  ZINC001220212140   -0.5100
     18 N18        -0.7202    0.3885   46.6410 N.am    1  ZINC001220212140   -0.5700
     19 C19        -0.1168   -0.5641   47.5762 C.3     1  ZINC001220212140    0.0700
     20 C20        -0.4534    0.2886   45.2711 C.ar    1  ZINC001220212140    0.1400
     21 C21        -1.4053   -0.2482   44.4141 C.ar    1  ZINC001220212140   -0.1100
     22 C22        -1.1389   -0.3455   43.0624 C.ar    1  ZINC001220212140   -0.1100
     23 C23         0.0743    0.0907   42.5622 C.ar    1  ZINC001220212140   -0.1200
     24 C24         1.0243    0.6253   43.4130 C.ar    1  ZINC001220212140   -0.1100
     25 C25         0.7615    0.7314   44.7647 C.ar    1  ZINC001220212140   -0.1200
     26 C26        -3.2948    1.8597   48.8295 C.3     1  ZINC001220212140    0.1400
     27 C27        -7.2209    3.4207   51.7343 C.ar    1  ZINC001220212140   -0.1100
     28 C28        -8.3009    3.5213   52.5861 C.ar    1  ZINC001220212140   -0.1200
     29 C29        -8.8171    2.3855   53.2043 C.ar    1  ZINC001220212140    0.0900
     30 O30        -9.8548    2.2656   54.0858 O.3     1  ZINC001220212140   -0.3000
     31 H31       -11.0342    0.9502   52.0924 H       1  ZINC001220212140    0.0600
     32 H32       -11.6560   -0.4018   53.0690 H       1  ZINC001220212140    0.0800
     33 H33       -12.2688    1.2473   53.3397 H       1  ZINC001220212140    0.0700
     34 H34        -8.4561   -0.1812   54.6294 H       1  ZINC001220212140    0.0900
     35 H35        -9.2431   -0.7492   53.1194 H       1  ZINC001220212140    0.0900
     36 H36        -6.7042    0.0839   51.9083 H       1  ZINC001220212140    0.1400
     37 H37        -5.6338    1.6399   49.7658 H       1  ZINC001220212140    0.4100
     38 H38        -1.9842    4.1199   50.5317 H       1  ZINC001220212140    0.0700
     39 H39        -1.5407    2.5798   51.3195 H       1  ZINC001220212140    0.0700
     40 H40        -1.0100    3.5012   48.5004 H       1  ZINC001220212140    0.1000
     41 H41        -0.0670    2.3715   49.5269 H       1  ZINC001220212140    0.0900
     42 H42        -0.7766   -1.4233   47.6959 H       1  ZINC001220212140    0.0700
     43 H43         0.8452   -0.8964   47.1862 H       1  ZINC001220212140    0.0800
     44 H44         0.0300   -0.0814   48.5424 H       1  ZINC001220212140    0.0800
     45 H45        -2.3527   -0.5897   44.8043 H       1  ZINC001220212140    0.1200
     46 H46        -1.8788   -0.7629   42.3955 H       1  ZINC001220212140    0.1300
     47 H47         0.2803    0.0132   41.5049 H       1  ZINC001220212140    0.1300
     48 H48         1.9711    0.9644   43.0192 H       1  ZINC001220212140    0.1300
     49 H49         1.5039    1.1490   45.4286 H       1  ZINC001220212140    0.1200
     50 H50        -3.9259    0.9711   48.8426 H       1  ZINC001220212140    0.0900
     51 H51        -3.6386    2.5589   48.0672 H       1  ZINC001220212140    0.0700
     52 H52        -6.8263    4.3066   51.2591 H       1  ZINC001220212140    0.1300
     53 H53        -8.7485    4.4860   52.7745 H       1  ZINC001220212140    0.1300
@<TRIPOS>BOND
     1     1     2    1
     2     1    31    1
     3     1    32    1
     4     1    33    1
     5     2     3    1
     6     2    30    1
     7     2     4    1
     8     4     5    1
     9     4    34    1
    10     4    35    1
    11     5    29   ar
    12     5     6   ar
    13     6     7   ar
    14     6    36    1
    15     7     8    1
    16     7    27   ar
    17     8     9   am
    18     8    37    1
    19     9    10    2
    20     9    11   am
    21    11    26    1
    22    11    12    1
    23    12    13    1
    24    12    38    1
    25    12    39    1
    26    13    14    1
    27    13    40    1
    28    13    41    1
    29    14    15    1
    30    14    16    1
    31    14    26    1
    32    16    17    2
    33    16    18   am
    34    18    19    1
    35    18    20    1
    36    19    42    1
    37    19    43    1
    38    19    44    1
    39    20    25   ar
    40    20    21   ar
    41    21    22   ar
    42    21    45    1
    43    22    23   ar
    44    22    46    1
    45    23    24   ar
    46    23    47    1
    47    24    25   ar
    48    24    48    1
    49    25    49    1
    50    26    50    1
    51    26    51    1
    52    27    28   ar
    53    27    52    1
    54    28    29   ar
    55    28    53    1
    56    29    30    1
@<TRIPOS>SUBSTRUCTURE
     1 ZINC001220212140        1 TEMP              0 ****  ****    0 ROOT


##########                                Name:    ZINC000291036115
##########                DOCK_Rotatable_Bonds:                   5
##########                         Heavy_Atoms:                  22
##########                    Molecular_Weight:             366.193
##########                DOCK_Rotatable_Bonds:                   5
##########                       Formal_Charge:                0.01
##########                     HBond_Acceptors:                   7
##########                        HBond_Donors:                   0
##########                         Heavy_Atoms:                  22
##########                          Grid_Score:          -35.041817
##########                     Grid_vdw_energy:          -33.355736
##########                      Grid_es_energy:           -1.686082
##########           Internal_energy_repulsive:           11.231282

@<TRIPOS>MOLECULE
ZINC000291036115
 35 37 1 0 0
SMALL
USER_CHARGES


@<TRIPOS>ATOM
      1 C1         -0.5066   -0.4239   48.3735 C.3     1  <0>        -0.1500
      2 C2         -0.6104    0.9670   47.7443 C.3     1  <0>        -0.0400
      3 H3         -0.0854    1.6888   48.3699 H       1  <0>         0.0900
      4 C4         -2.0828    1.3665   47.6302 C.3     1  <0>        -0.0200
      5 C5         -2.5193    2.0447   48.9032 C.2     1  <0>         0.1900
      6 N6         -3.7074    1.9802   49.4547 N.2     1  <0>        -0.4500
      7 C7         -3.6324    2.7352   50.5651 C.2     1  <0>         0.1500
      8 C8         -4.7442    2.9829   51.5519 C.3     1  <0>         0.2300
      9 N9         -5.5815    1.7853   51.6550 N.pl3   1  <0>        -0.3900
     10 C10        -6.2210    1.3411   52.7509 C.2     1  <0>         0.2600
     11 N11        -6.8598    0.2448   52.4320 N.2     1  <0>        -0.5400
     12 C12        -6.6531   -0.0411   51.1471 C.2     1  <0>         0.2000
     13 N13        -5.8807    0.8763   50.6271 N.2     1  <0>        -0.3100
     14 N14        -2.4252    3.2115   50.6312 N.2     1  <0>        -0.3600
     15 O15        -1.7681    2.8220   49.6889 O.3     1  <0>         0.0900
     16 C16         0.0120    0.9451   46.3720 C.ar    1  <0>        -0.0900
     17 C17         1.2439    1.5359   46.1630 C.ar    1  <0>        -0.0700
     18 C18         1.8165    1.5163   44.9050 C.ar    1  <0>        -0.1400
     19 C19         1.1557    0.9047   43.8537 C.ar    1  <0>         0.1300
     20 F20         1.7145    0.8846   42.6239 F       1  <0>        -0.1200
     21 C21        -0.0793    0.3126   44.0639 C.ar    1  <0>        -0.1300
     22 Br22       -0.9838   -0.5242   42.6296 Br      1  <0>        -0.0200
     23 C23        -0.6472    0.3290   45.3244 C.ar    1  <0>        -0.0500
     24 H24        -0.9567   -0.4080   49.3661 H       1  <0>         0.0600
     25 H25        -1.0315   -1.1457   47.7480 H       1  <0>         0.0700
     26 H26         0.5425   -0.7085   48.4548 H       1  <0>         0.0700
     27 H27        -2.2095    2.0514   46.7918 H       1  <0>         0.1200
     28 H28        -2.6894    0.4758   47.4666 H       1  <0>         0.1100
     29 H29        -4.3185    3.2138   52.5284 H       1  <0>         0.1300
     30 H30        -5.3510    3.8223   51.2124 H       1  <0>         0.1200
     31 H31        -6.2089    1.8076   53.7250 H       1  <0>         0.2200
     32 H32        -7.0612   -0.8906   50.6198 H       1  <0>         0.2200
     33 H33         1.7595    2.0135   46.9831 H       1  <0>         0.1400
     34 H34         2.7789    1.9784   44.7422 H       1  <0>         0.1500
     35 H35        -1.6098   -0.1323   45.4888 H       1  <0>         0.1400
@<TRIPOS>BOND
     1     1     2    1
     2     1    24    1
     3     1    25    1
     4     1    26    1
     5     2     3    1
     6     2     4    1
     7     2    16    1
     8     4     5    1
     9     4    27    1
    10     4    28    1
    11     5    15    1
    12     5     6    2
    13     6     7    1
    14     7     8    1
    15     7    14    2
    16     8     9    1
    17     8    29    1
    18     8    30    1
    19     9    13    1
    20     9    10    1
    21    10    11    2
    22    10    31    1
    23    11    12    1
    24    12    13    2
    25    12    32    1
    26    14    15    1
    27    16    23   ar
    28    16    17   ar
    29    17    18   ar
    30    17    33    1
    31    18    19   ar
    32    18    34    1
    33    19    20    1
    34    19    21   ar
    35    21    22    1
    36    21    23   ar
    37    23    35    1
@<TRIPOS>SUBSTRUCTURE
     1 <0>         1 TEMP              0 ****  ****    0 ROOT


##########                                Name:    ZINC000426607143
##########                DOCK_Rotatable_Bonds:                   3
##########                         Heavy_Atoms:                  25
##########                    Molecular_Weight:             419.302
##########                DOCK_Rotatable_Bonds:                   3
##########                       Formal_Charge:         1.49012e-07
##########                     HBond_Acceptors:                   7
##########                        HBond_Donors:                   0
##########                         Heavy_Atoms:                  25
##########                          Grid_Score:          -35.004906
##########                     Grid_vdw_energy:          -32.982391
##########                      Grid_es_energy:           -2.022513
##########           Internal_energy_repulsive:           20.239214

@<TRIPOS>MOLECULE
ZINC000426607143
 40 43 1 0 0
SMALL
USER_CHARGES


@<TRIPOS>ATOM
      1 C1         -6.6321    3.0506   50.1254 C.3     1  ZINC000426607143   -0.0900
      2 C2         -5.8195    4.0212   50.9431 C.2     1  ZINC000426607143    0.1600
      3 N3         -6.3811    4.9699   51.6279 N.2     1  ZINC000426607143   -0.4600
      4 S4         -5.1482    5.8385   52.4022 S.3     1  ZINC000426607143    0.2900
      5 C5         -3.8506    4.8940   51.7829 C.2     1  ZINC000426607143   -0.1300
      6 C6         -2.3790    5.0788   52.0502 C.3     1  ZINC000426607143   -0.0800
      7 C7         -4.4347    3.9395   51.0043 C.2     1  ZINC000426607143   -0.1200
      8 C8         -3.6565    2.9076   50.2767 C.2     1  ZINC000426607143    0.2500
      9 N9         -4.1154    1.7757   49.8078 N.2     1  ZINC000426607143   -0.3700
     10 O10        -3.2241    1.1577   49.2649 O.3     1  ZINC000426607143    0.0900
     11 C11        -2.0810    1.8471   49.3336 C.2     1  ZINC000426607143    0.2000
     12 C12        -0.7454    1.4230   48.7794 C.3     1  ZINC000426607143   -0.0300
     13 H13         0.0585    1.9917   49.2465 H       1  ZINC000426607143    0.1600
     14 C14        -0.5287   -0.0935   48.9903 C.3     1  ZINC000426607143   -0.1200
     15 C15         0.2181   -0.4879   47.6968 C.3     1  ZINC000426607143    0.1000
     16 N16        -0.1776    0.5104   46.6963 N.am    1  ZINC000426607143   -0.5800
     17 C17        -0.0147    0.3520   45.3153 C.ar    1  ZINC000426607143    0.1700
     18 C18        -1.1144    0.0861   44.5110 C.ar    1  ZINC000426607143   -0.1000
     19 C19        -0.9504   -0.0698   43.1481 C.ar    1  ZINC000426607143   -0.1000
     20 C20         0.3075    0.0381   42.5846 C.ar    1  ZINC000426607143   -0.1000
     21 C21         1.4056    0.3028   43.3825 C.ar    1  ZINC000426607143   -0.0900
     22 C22         1.2477    0.4659   44.7453 C.ar    1  ZINC000426607143   -0.0800
     23 Br23        2.7496    0.8278   45.8358 Br      1  ZINC000426607143   -0.0400
     24 C24        -0.7154    1.5997   47.2771 C.2     1  ZINC000426607143    0.5300
     25 O25        -1.1194    2.5763   46.6821 O.2     1  ZINC000426607143   -0.4900
     26 N26        -2.3407    2.9628   49.9686 N.2     1  ZINC000426607143   -0.4600
     27 H27        -6.9008    2.1924   50.7414 H       1  ZINC000426607143    0.0900
     28 H28        -7.5385    3.5425   49.7726 H       1  ZINC000426607143    0.0800
     29 H29        -6.0447    2.7147   49.2708 H       1  ZINC000426607143    0.1100
     30 H30        -2.2348    5.9283   52.7178 H       1  ZINC000426607143    0.0800
     31 H31        -1.9786    4.1785   52.5161 H       1  ZINC000426607143    0.0900
     32 H32        -1.8594    5.2633   51.1099 H       1  ZINC000426607143    0.0900
     33 H33         0.0879   -0.2809   49.8693 H       1  ZINC000426607143    0.1100
     34 H34        -1.4819   -0.6169   49.0654 H       1  ZINC000426607143    0.1000
     35 H35         1.2955   -0.4538   47.8580 H       1  ZINC000426607143    0.0900
     36 H36        -0.0846   -1.4845   47.3754 H       1  ZINC000426607143    0.0900
     37 H37        -2.0973    0.0010   44.9503 H       1  ZINC000426607143    0.1400
     38 H38        -1.8058   -0.2766   42.5222 H       1  ZINC000426607143    0.1400
     39 H39         0.4328   -0.0851   41.5190 H       1  ZINC000426607143    0.1400
     40 H40         2.3869    0.3864   42.9392 H       1  ZINC000426607143    0.1400
@<TRIPOS>BOND
     1     1     2    1
     2     1    27    1
     3     1    28    1
     4     1    29    1
     5     2     7    1
     6     2     3    2
     7     3     4    1
     8     4     5    1
     9     5     6    1
    10     5     7    2
    11     6    30    1
    12     6    31    1
    13     6    32    1
    14     7     8    1
    15     8    26    1
    16     8     9    2
    17     9    10    1
    18    10    11    1
    19    11    12    1
    20    11    26    2
    21    12    13    1
    22    12    24    1
    23    12    14    1
    24    14    15    1
    25    14    33    1
    26    14    34    1
    27    15    16    1
    28    15    35    1
    29    15    36    1
    30    16    17    1
    31    16    24   am
    32    17    22   ar
    33    17    18   ar
    34    18    19   ar
    35    18    37    1
    36    19    20   ar
    37    19    38    1
    38    20    21   ar
    39    20    39    1
    40    21    22   ar
    41    21    40    1
    42    22    23    1
    43    24    25    2
@<TRIPOS>SUBSTRUCTURE
     1 ZINC000426607143        1 TEMP              0 ****  ****    0 ROOT


##########                                Name:    ZINC000790205345
##########                DOCK_Rotatable_Bonds:                   7
##########                         Heavy_Atoms:                  28
##########                    Molecular_Weight:             382.459
##########                DOCK_Rotatable_Bonds:                   7
##########                       Formal_Charge:          -0.0299997
##########                     HBond_Acceptors:                   6
##########                        HBond_Donors:                   0
##########                         Heavy_Atoms:                  28
##########                          Grid_Score:          -34.978035
##########                     Grid_vdw_energy:          -34.673134
##########                      Grid_es_energy:           -0.304903
##########           Internal_energy_repulsive:           21.146429

@<TRIPOS>MOLECULE
ZINC000790205345
 54 56 1 0 0
SMALL
USER_CHARGES


@<TRIPOS>ATOM
      1 C1         -7.1037    2.6602   54.3903 C.3     1  ZINC000790205345   -0.1100
      2 C2         -6.1662    2.7523   53.2139 C.ar    1  ZINC000790205345   -0.1300
      3 C3         -5.2195    3.7584   53.1632 C.ar    1  ZINC000790205345   -0.0800
      4 C4         -4.3586    3.8449   52.0861 C.ar    1  ZINC000790205345   -0.2100
      5 C5         -4.4448    2.9210   51.0549 C.ar    1  ZINC000790205345    0.1300
      6 O6         -3.5988    3.0035   49.9946 O.3     1  ZINC000790205345   -0.2900
      7 C7         -2.9438    1.7988   49.5921 C.3     1  ZINC000790205345    0.0400
      8 C8         -1.4639    1.9218   49.8488 C.2     1  ZINC000790205345    0.5200
      9 O9         -1.0421    2.8193   50.5469 O.2     1  ZINC000790205345   -0.5100
     10 N10        -0.6092    1.0344   49.3025 N.am    1  ZINC000790205345   -0.6100
     11 C11         0.8293    1.1529   49.5537 C.3     1  ZINC000790205345    0.0700
     12 C12        -1.1185   -0.0487   48.4578 C.3     1  ZINC000790205345    0.1800
     13 H13        -2.1579   -0.2524   48.7155 H       1  ZINC000790205345    0.1200
     14 C14        -0.2807   -1.3088   48.6839 C.3     1  ZINC000790205345   -0.1600
     15 C15        -1.0307    0.3598   47.0099 C.ar    1  ZINC000790205345   -0.0700
     16 C16        -1.4673   -0.5026   46.0214 C.ar    1  ZINC000790205345   -0.1300
     17 C17        -1.3879   -0.1316   44.6914 C.ar    1  ZINC000790205345   -0.0900
     18 C18        -0.8724    1.1023   44.3469 C.ar    1  ZINC000790205345   -0.1500
     19 C19        -0.4334    1.9710   45.3375 C.ar    1  ZINC000790205345    0.1800
     20 N20         0.0892    3.2224   44.9916 N.am    1  ZINC000790205345   -0.5700
     21 C21        -0.5529    4.5196   45.2533 C.3     1  ZINC000790205345    0.0600
     22 C22         0.4412    5.5446   44.6742 C.3     1  ZINC000790205345    0.0400
     23 O23         1.5278    4.7262   44.1523 O.3     1  ZINC000790205345   -0.3200
     24 C24         1.2589    3.4345   44.3731 C.2     1  ZINC000790205345    0.6400
     25 O25         2.0035    2.5352   44.0363 O.2     1  ZINC000790205345   -0.5000
     26 C26        -0.5192    1.5977   46.6721 C.ar    1  ZINC000790205345   -0.1400
     27 C27        -5.3958    1.9121   51.1082 C.ar    1  ZINC000790205345   -0.1500
     28 C28        -6.2506    1.8269   52.1898 C.ar    1  ZINC000790205345   -0.0500
     29 C29        -7.2836    0.7311   52.2486 C.3     1  ZINC000790205345   -0.1200
     30 H30        -6.6564    2.0350   55.1631 H       1  ZINC000790205345    0.0700
     31 H31        -7.2847    3.6581   54.7896 H       1  ZINC000790205345    0.0600
     32 H32        -8.0479    2.2207   54.0687 H       1  ZINC000790205345    0.0700
     33 H33        -5.1531    4.4778   53.9661 H       1  ZINC000790205345    0.1300
     34 H34        -3.6194    4.6313   52.0467 H       1  ZINC000790205345    0.1300
     35 H35        -3.3431    0.9602   50.1625 H       1  ZINC000790205345    0.1000
     36 H36        -3.1154    1.6297   48.5290 H       1  ZINC000790205345    0.0900
     37 H37         1.0747    0.6663   50.4976 H       1  ZINC000790205345    0.0600
     38 H38         1.3800    0.6740   48.7441 H       1  ZINC000790205345    0.0800
     39 H39         1.1034    2.2065   49.6061 H       1  ZINC000790205345    0.0700
     40 H40         0.7587   -1.1052   48.4263 H       1  ZINC000790205345    0.0600
     41 H41        -0.3443   -1.6044   49.7312 H       1  ZINC000790205345    0.0700
     42 H42        -0.6597   -2.1147   48.0554 H       1  ZINC000790205345    0.0800
     43 H43        -1.8709   -1.4681   46.2883 H       1  ZINC000790205345    0.1300
     44 H44        -1.7291   -0.8077   43.9215 H       1  ZINC000790205345    0.1300
     45 H45        -0.8104    1.3912   43.3081 H       1  ZINC000790205345    0.1300
     46 H46        -1.5116    4.5830   44.7387 H       1  ZINC000790205345    0.1000
     47 H47        -0.6814    4.6739   46.3246 H       1  ZINC000790205345    0.1000
     48 H48        -0.0245    6.1177   43.8724 H       1  ZINC000790205345    0.1100
     49 H49         0.8054    6.2086   45.4581 H       1  ZINC000790205345    0.1100
     50 H50        -0.1789    2.2712   47.4448 H       1  ZINC000790205345    0.1600
     51 H51        -5.4651    1.1917   50.3066 H       1  ZINC000790205345    0.1300
     52 H52        -6.8600   -0.1411   52.7465 H       1  ZINC000790205345    0.0700
     53 H53        -8.1530    1.0808   52.8054 H       1  ZINC000790205345    0.0700
     54 H54        -7.5847    0.4610   51.2364 H       1  ZINC000790205345    0.0700
@<TRIPOS>BOND
     1     1     2    1
     2     1    30    1
     3     1    31    1
     4     1    32    1
     5     2    28   ar
     6     2     3   ar
     7     3     4   ar
     8     3    33    1
     9     4     5   ar
    10     4    34    1
    11     5     6    1
    12     5    27   ar
    13     6     7    1
    14     7     8    1
    15     7    35    1
    16     7    36    1
    17     8     9    2
    18     8    10   am
    19    10    11    1
    20    10    12    1
    21    11    37    1
    22    11    38    1
    23    11    39    1
    24    12    13    1
    25    12    14    1
    26    12    15    1
    27    14    40    1
    28    14    41    1
    29    14    42    1
    30    15    26   ar
    31    15    16   ar
    32    16    17   ar
    33    16    43    1
    34    17    18   ar
    35    17    44    1
    36    18    19   ar
    37    18    45    1
    38    19    20    1
    39    19    26   ar
    40    20    24   am
    41    20    21    1
    42    21    22    1
    43    21    46    1
    44    21    47    1
    45    22    23    1
    46    22    48    1
    47    22    49    1
    48    23    24    1
    49    24    25    2
    50    26    50    1
    51    27    28   ar
    52    27    51    1
    53    28    29    1
    54    29    52    1
    55    29    53    1
    56    29    54    1
@<TRIPOS>SUBSTRUCTURE
     1 ZINC000790205345        1 TEMP              0 ****  ****    0 ROOT


##########                                Name:    ZINC000482846390
##########                DOCK_Rotatable_Bonds:                   9
##########                         Heavy_Atoms:                  30
##########                    Molecular_Weight:             420.469
##########                DOCK_Rotatable_Bonds:                   9
##########                       Formal_Charge:          -0.0100011
##########                     HBond_Acceptors:                  11
##########                        HBond_Donors:                   2
##########                         Heavy_Atoms:                  30
##########                          Grid_Score:          -34.961014
##########                     Grid_vdw_energy:          -33.353024
##########                      Grid_es_energy:           -1.607992
##########           Internal_energy_repulsive:           27.603252

@<TRIPOS>MOLECULE
ZINC000482846390
 58 60 1 0 0
SMALL
USER_CHARGES


@<TRIPOS>ATOM
      1 C1         -0.2697    1.4846   49.5351 C.3     1  ZINC000482846390   -0.1000
      2 C2         -1.7216    1.7849   49.8052 C.2     1  ZINC000482846390    0.0900
      3 C3         -2.2475    3.0017   50.0768 C.2     1  ZINC000482846390   -0.2700
      4 C4         -3.6246    2.8436   50.2630 C.2     1  ZINC000482846390    0.0700
      5 C5         -4.6047    3.9422   50.5848 C.3     1  ZINC000482846390   -0.0500
      6 C6         -5.0029    3.8549   52.0594 C.3     1  ZINC000482846390    0.1500
      7 H7         -5.7293    4.6353   52.2865 H       1  ZINC000482846390    0.1000
      8 C8         -3.7621    4.0430   52.9347 C.3     1  ZINC000482846390   -0.1700
      9 N9         -5.5959    2.5426   52.3283 N.am    1  ZINC000482846390   -0.6800
     10 C10        -6.8163    2.2421   51.8418 C.2     1  ZINC000482846390    0.5100
     11 O11        -7.4233    3.0580   51.1797 O.2     1  ZINC000482846390   -0.5200
     12 C12        -7.4220    0.9040   52.1176 C.2     1  ZINC000482846390    0.5100
     13 O13        -6.9064   -0.0993   51.6701 O.2     1  ZINC000482846390   -0.5100
     14 N14        -8.5407    0.8114   52.8635 N.am    1  ZINC000482846390   -0.5900
     15 C15        -9.1437   -0.4984   53.1479 C.3     1  ZINC000482846390    0.0500
     16 C16        -9.2769   -0.6570   54.6675 C.3     1  ZINC000482846390    0.1000
     17 N17        -9.9153    0.5498   55.2115 N.am    1  ZINC000482846390   -0.6000
     18 C18       -11.0335    0.4571   55.9581 C.2     1  ZINC000482846390    0.5200
     19 O19       -11.5517    1.4606   56.4019 O.2     1  ZINC000482846390   -0.5000
     20 C20       -11.6354   -0.8816   56.2396 C.2     1  ZINC000482846390    0.5200
     21 O21       -12.4010   -1.3824   55.4424 O.2     1  ZINC000482846390   -0.5000
     22 N22       -11.3279   -1.5327   57.3789 N.am    1  ZINC000482846390   -0.6000
     23 C23       -11.9033   -2.8543   57.6751 C.3     1  ZINC000482846390    0.0700
     24 C24       -10.7620   -3.8040   58.0560 C.3     1  ZINC000482846390    0.0500
     25 O25        -9.9780   -3.2064   59.0915 O.3     1  ZINC000482846390   -0.3700
     26 C26        -9.3382   -1.9859   58.7108 C.3     1  ZINC000482846390    0.0500
     27 C27       -10.4023   -0.9456   58.3607 C.3     1  ZINC000482846390    0.0700
     28 C28        -9.3123    1.8596   54.9271 C.3     1  ZINC000482846390    0.0900
     29 C29        -9.1760    2.0177   53.4121 C.3     1  ZINC000482846390    0.0900
     30 N30        -3.9152    1.5773   50.1088 N.2     1  ZINC000482846390   -0.2800
     31 N31        -2.7311    0.8893   49.8139 N.pl3   1  ZINC000482846390   -0.4700
     32 H32        -0.0728    1.5745   48.4668 H       1  ZINC000482846390    0.0800
     33 H33         0.3552    2.1918   50.0806 H       1  ZINC000482846390    0.0900
     34 H34        -0.0415    0.4703   49.8625 H       1  ZINC000482846390    0.0700
     35 H35        -1.7004    3.9308   50.1390 H       1  ZINC000482846390    0.1500
     36 H36        -4.1425    4.9100   50.3899 H       1  ZINC000482846390    0.0900
     37 H37        -5.4921    3.8314   49.9616 H       1  ZINC000482846390    0.1100
     38 H38        -3.3210    5.0193   52.7347 H       1  ZINC000482846390    0.0700
     39 H39        -4.0459    3.9807   53.9853 H       1  ZINC000482846390    0.0700
     40 H40        -3.0358    3.2626   52.7077 H       1  ZINC000482846390    0.0600
     41 H41        -5.1102    1.8899   52.8565 H       1  ZINC000482846390    0.4200
     42 H42       -10.1296   -0.5552   52.6864 H       1  ZINC000482846390    0.0800
     43 H43        -8.5057   -1.2886   52.7521 H       1  ZINC000482846390    0.1600
     44 H44        -9.8916   -1.5288   54.8919 H       1  ZINC000482846390    0.1100
     45 H45        -8.2886   -0.7794   55.1106 H       1  ZINC000482846390    0.0800
     46 H46       -12.6047   -2.7716   58.5053 H       1  ZINC000482846390    0.0900
     47 H47       -12.4197   -3.2356   56.7942 H       1  ZINC000482846390    0.0900
     48 H48       -11.1765   -4.7472   58.4117 H       1  ZINC000482846390    0.1100
     49 H49       -10.1342   -3.9873   57.1840 H       1  ZINC000482846390    0.0600
     50 H50        -8.7286   -1.6212   59.5375 H       1  ZINC000482846390    0.1100
     51 H51        -8.7054   -2.1625   57.8411 H       1  ZINC000482846390    0.0600
     52 H52        -9.9260   -0.0620   57.9358 H       1  ZINC000482846390    0.1100
     53 H53       -10.9550   -0.6693   59.2586 H       1  ZINC000482846390    0.0800
     54 H54        -9.9504    2.6497   55.3229 H       1  ZINC000482846390    0.0900
     55 H55        -8.3265    1.9163   55.3887 H       1  ZINC000482846390    0.0900
     56 H56        -8.5611    2.8898   53.1892 H       1  ZINC000482846390    0.1100
     57 H57       -10.1633    2.1396   52.9667 H       1  ZINC000482846390    0.0800
     58 H58        -2.6501   -0.0634   49.6507 H       1  ZINC000482846390    0.4400
@<TRIPOS>BOND
     1     1     2    1
     2     1    32    1
     3     1    33    1
     4     1    34    1
     5     2    31    1
     6     2     3    2
     7     3     4    1
     8     3    35    1
     9     4     5    1
    10     4    30    2
    11     5     6    1
    12     5    36    1
    13     5    37    1
    14     6     7    1
    15     6     8    1
    16     6     9    1
    17     8    38    1
    18     8    39    1
    19     8    40    1
    20     9    10   am
    21     9    41    1
    22    10    11    2
    23    10    12    1
    24    12    13    2
    25    12    14   am
    26    14    29    1
    27    14    15    1
    28    15    16    1
    29    15    42    1
    30    15    43    1
    31    16    17    1
    32    16    44    1
    33    16    45    1
    34    17    18   am
    35    17    28    1
    36    18    19    2
    37    18    20    1
    38    20    21    2
    39    20    22   am
    40    22    27    1
    41    22    23    1
    42    23    24    1
    43    23    46    1
    44    23    47    1
    45    24    25    1
    46    24    48    1
    47    24    49    1
    48    25    26    1
    49    26    27    1
    50    26    50    1
    51    26    51    1
    52    27    52    1
    53    27    53    1
    54    28    29    1
    55    28    54    1
    56    28    55    1
    57    29    56    1
    58    29    57    1
    59    30    31    1
    60    31    58    1
@<TRIPOS>SUBSTRUCTURE
     1 ZINC000482846390        1 TEMP              0 ****  ****    0 ROOT


##########                                Name:    ZINC000151820600
##########                DOCK_Rotatable_Bonds:                  10
##########                         Heavy_Atoms:                  25
##########                    Molecular_Weight:             388.915
##########                DOCK_Rotatable_Bonds:                  10
##########                       Formal_Charge:           0.0499998
##########                     HBond_Acceptors:                   8
##########                        HBond_Donors:                   2
##########                         Heavy_Atoms:                  25
##########                          Grid_Score:          -34.960758
##########                     Grid_vdw_energy:          -32.173061
##########                      Grid_es_energy:           -2.787697
##########           Internal_energy_repulsive:           16.305370

@<TRIPOS>MOLECULE
ZINC000151820600
 50 50 1 0 0
SMALL
USER_CHARGES


@<TRIPOS>ATOM
      1 C1         -9.0296    3.1051   52.8879 C.3     1  ZINC000151820600   -0.4900
      2 S2         -7.7288    2.6182   51.7211 S.o     1  ZINC000151820600    1.2500
      3 O3         -7.1186    1.4148   52.1673 O.2     1  ZINC000151820600   -0.8500
      4 C4         -6.5386    3.9815   51.8446 C.3     1  ZINC000151820600   -0.4500
      5 C5         -5.3609    3.7171   50.9044 C.3     1  ZINC000151820600   -0.1100
      6 C6         -4.4064    2.7122   51.5527 C.3     1  ZINC000151820600    0.1200
      7 N7         -3.1149    2.7500   50.8622 N.am    1  ZINC000151820600   -0.7200
      8 C8         -2.9705    2.1399   49.6692 C.2     1  ZINC000151820600    0.5200
      9 O9         -3.9095    1.5584   49.1679 O.2     1  ZINC000151820600   -0.5200
     10 C10        -1.6426    2.1803   48.9580 C.3     1  ZINC000151820600    0.1900
     11 H11        -1.5857    3.0802   48.3455 H       1  ZINC000151820600    0.1300
     12 N12        -0.5601    2.1923   49.9452 N.am    1  ZINC000151820600   -0.6900
     13 C13         0.3665    3.1706   49.9174 C.2     1  ZINC000151820600    0.6600
     14 O14         0.3049    4.0419   49.0726 O.2     1  ZINC000151820600   -0.5600
     15 O15         1.3604    3.1825   50.8255 O.3     1  ZINC000151820600   -0.3600
     16 C16         2.4742    2.2798   50.5956 C.3     1  ZINC000151820600    0.1400
     17 C17         2.5116    1.8819   49.1187 C.3     1  ZINC000151820600   -0.1800
     18 C18         3.7828    2.9792   50.9687 C.3     1  ZINC000151820600   -0.1400
     19 C19         2.3018    1.0273   51.4571 C.3     1  ZINC000151820600   -0.1800
     20 C20        -1.5067    0.9644   48.0782 C.ar    1  ZINC000151820600   -0.1000
     21 C21        -1.1974   -0.2615   48.6368 C.ar    1  ZINC000151820600   -0.0900
     22 C22        -1.0731   -1.3777   47.8303 C.ar    1  ZINC000151820600   -0.1000
     23 C23        -1.2574   -1.2681   46.4651 C.ar    1  ZINC000151820600   -0.1000
     24 C24        -1.5670   -0.0410   45.9053 C.ar    1  ZINC000151820600   -0.0300
     25 Cl25       -1.7993    0.0974   44.1905 Cl      1  ZINC000151820600   -0.0600
     26 C26        -1.6968    1.0741   46.7134 C.ar    1  ZINC000151820600   -0.0900
     27 H27        -8.6043    3.2008   53.8870 H       1  ZINC000151820600    0.0800
     28 H28        -9.4540    4.0609   52.5806 H       1  ZINC000151820600    0.1100
     29 H29        -9.8120    2.3463   52.8973 H       1  ZINC000151820600    0.1100
     30 H30        -7.0254    4.9154   51.5634 H       1  ZINC000151820600    0.1200
     31 H31        -6.1757    4.0552   52.8697 H       1  ZINC000151820600    0.0900
     32 H32        -5.7314    3.3110   49.9632 H       1  ZINC000151820600    0.0800
     33 H33        -4.8313    4.6506   50.7141 H       1  ZINC000151820600    0.0900
     34 H34        -4.2651    2.9704   52.6022 H       1  ZINC000151820600    0.0800
     35 H35        -4.8288    1.7101   51.4788 H       1  ZINC000151820600    0.0700
     36 H36        -2.3636    3.2141   51.2637 H       1  ZINC000151820600    0.4000
     37 H37        -0.5103    1.4961   50.6187 H       1  ZINC000151820600    0.4200
     38 H38         2.6344    2.7743   48.5050 H       1  ZINC000151820600    0.0600
     39 H39         3.3478    1.2043   48.9461 H       1  ZINC000151820600    0.0700
     40 H40         1.5793    1.3836   48.8530 H       1  ZINC000151820600    0.0900
     41 H41         3.7562    3.2628   52.0208 H       1  ZINC000151820600    0.0700
     42 H42         4.6190    2.3016   50.7960 H       1  ZINC000151820600    0.0800
     43 H43         3.9057    3.8717   50.3549 H       1  ZINC000151820600    0.0700
     44 H44         1.3695    0.5290   51.1913 H       1  ZINC000151820600    0.0900
     45 H45         3.1379    0.3497   51.2845 H       1  ZINC000151820600    0.0700
     46 H46         2.2751    1.3108   52.5093 H       1  ZINC000151820600    0.0600
     47 H47        -1.0526   -0.3475   49.7036 H       1  ZINC000151820600    0.1300
     48 H48        -0.8315   -2.3354   48.2672 H       1  ZINC000151820600    0.1400
     49 H49        -1.1595   -2.1399   45.8352 H       1  ZINC000151820600    0.1400
     50 H50        -1.9385    2.0321   46.2771 H       1  ZINC000151820600    0.1400
@<TRIPOS>BOND
     1     1     2    1
     2     1    27    1
     3     1    28    1
     4     1    29    1
     5     2     3    2
     6     2     4    1
     7     4     5    1
     8     4    30    1
     9     4    31    1
    10     5     6    1
    11     5    32    1
    12     5    33    1
    13     6     7    1
    14     6    34    1
    15     6    35    1
    16     7     8   am
    17     7    36    1
    18     8     9    2
    19     8    10    1
    20    10    11    1
    21    10    12    1
    22    10    20    1
    23    12    13   am
    24    12    37    1
    25    13    14    2
    26    13    15    1
    27    15    16    1
    28    16    17    1
    29    16    18    1
    30    16    19    1
    31    17    38    1
    32    17    39    1
    33    17    40    1
    34    18    41    1
    35    18    42    1
    36    18    43    1
    37    19    44    1
    38    19    45    1
    39    19    46    1
    40    20    26   ar
    41    20    21   ar
    42    21    22   ar
    43    21    47    1
    44    22    23   ar
    45    22    48    1
    46    23    24   ar
    47    23    49    1
    48    24    25    1
    49    24    26   ar
    50    26    50    1
@<TRIPOS>SUBSTRUCTURE
     1 ZINC000151820600        1 TEMP              0 ****  ****    0 ROOT


##########                                Name:    ZINC000550952205
##########                DOCK_Rotatable_Bonds:                   7
##########                         Heavy_Atoms:                  28
##########                    Molecular_Weight:             407.484
##########                DOCK_Rotatable_Bonds:                   7
##########                       Formal_Charge:        -2.68221e-07
##########                     HBond_Acceptors:                   8
##########                        HBond_Donors:                   2
##########                         Heavy_Atoms:                  28
##########                          Grid_Score:          -34.956516
##########                     Grid_vdw_energy:          -33.995560
##########                      Grid_es_energy:           -0.960958
##########           Internal_energy_repulsive:            7.113190

@<TRIPOS>MOLECULE
ZINC000550952205
 51 54 1 0 0
SMALL
USER_CHARGES


@<TRIPOS>ATOM
      1 O1         -5.8331    1.9636   49.6219 O.2     1  ZINC000550952205   -0.5100
      2 C2         -5.4034    2.0319   50.7547 C.2     1  ZINC000550952205    0.5100
      3 N3         -4.2323    2.6544   50.9949 N.am    1  ZINC000550952205   -0.7000
      4 C4         -3.4753    3.2434   49.8874 C.3     1  ZINC000550952205    0.1200
      5 C5         -2.1341    2.5210   49.7454 C.3     1  ZINC000550952205   -0.0900
      6 H6         -1.9281    1.9499   50.6508 H       1  ZINC000550952205    0.1000
      7 C7         -2.1828    1.5925   48.5623 C.3     1  ZINC000550952205   -0.1300
      8 C8         -1.3524    0.3135   48.7822 C.3     1  ZINC000550952205   -0.1200
      9 C9          0.0010    0.5897   49.4645 C.3     1  ZINC000550952205   -0.1300
     10 C10         0.6782    1.8195   48.9234 C.3     1  ZINC000550952205   -0.1500
     11 C11         0.3064    3.0183   49.8199 C.3     1  ZINC000550952205    0.3000
     12 F12         0.3281    2.6076   51.1572 F       1  ZINC000550952205   -0.2000
     13 F13         1.2566    4.0294   49.6416 F       1  ZINC000550952205   -0.2000
     14 C14        -1.0111    3.5534   49.5174 C.3     1  ZINC000550952205   -0.1700
     15 C15        -6.1749    1.4316   51.8835 C.2     1  ZINC000550952205    0.5100
     16 O16        -6.3084    0.2272   51.9547 O.2     1  ZINC000550952205   -0.4900
     17 N17        -6.7231    2.2271   52.8233 N.am    1  ZINC000550952205   -0.6400
     18 C18        -7.4454    1.6651   53.8800 C.ar    1  ZINC000550952205    0.1500
     19 C19        -8.6027    0.9321   53.6224 C.ar    1  ZINC000550952205   -0.1200
     20 C20        -9.3160    0.3791   54.6410 C.ar    1  ZINC000550952205   -0.0400
     21 C21        -8.8968    0.5378   55.9777 C.ar    1  ZINC000550952205    0.0800
     22 N22        -9.4553    0.0763   57.1134 N.2     1  ZINC000550952205   -0.4700
     23 C23        -8.8788    0.3571   58.2200 C.2     1  ZINC000550952205    0.1200
     24 C24        -9.3775   -0.0849   59.5717 C.3     1  ZINC000550952205   -0.1100
     25 C25       -10.1052   -1.4285   59.6515 C.3     1  ZINC000550952205   -0.1500
     26 C26        -8.6910   -1.2893   60.2187 C.3     1  ZINC000550952205   -0.1500
     27 S27        -7.4739    1.2941   57.9746 S.3     1  ZINC000550952205    0.1200
     28 C28        -7.7338    1.2740   56.2331 C.ar    1  ZINC000550952205   -0.1700
     29 C29        -7.0092    1.8308   55.1827 C.ar    1  ZINC000550952205   -0.0700
     30 H30        -3.8907    2.7125   51.9008 H       1  ZINC000550952205    0.4200
     31 H31        -4.0436    3.1395   48.9630 H       1  ZINC000550952205    0.0800
     32 H32        -3.2993    4.3000   50.0890 H       1  ZINC000550952205    0.0800
     33 H33        -3.2196    1.3122   48.3764 H       1  ZINC000550952205    0.0700
     34 H34        -1.7986    2.1161   47.6869 H       1  ZINC000550952205    0.0700
     35 H35        -1.9253   -0.3751   49.4034 H       1  ZINC000550952205    0.0700
     36 H36        -1.1695   -0.1573   47.8162 H       1  ZINC000550952205    0.0700
     37 H37        -0.1633    0.7194   50.5342 H       1  ZINC000550952205    0.0800
     38 H38         0.6547   -0.2691   49.3117 H       1  ZINC000550952205    0.0700
     39 H39         1.7588    1.6766   48.9328 H       1  ZINC000550952205    0.0900
     40 H40         0.3395    2.0056   47.9042 H       1  ZINC000550952205    0.1000
     41 H41        -1.0336    3.8669   48.4737 H       1  ZINC000550952205    0.1000
     42 H42        -1.1925    4.4230   50.1492 H       1  ZINC000550952205    0.1000
     43 H43        -6.6163    3.1895   52.7665 H       1  ZINC000550952205    0.4300
     44 H44        -8.9372    0.8019   52.6038 H       1  ZINC000550952205    0.1400
     45 H45       -10.2106   -0.1854   54.4237 H       1  ZINC000550952205    0.1400
     46 H46        -9.7199    0.7132   60.2304 H       1  ZINC000550952205    0.1300
     47 H47       -10.9266   -1.5145   60.3628 H       1  ZINC000550952205    0.1000
     48 H48       -10.2231   -1.9927   58.7264 H       1  ZINC000550952205    0.1100
     49 H49        -7.8786   -1.7621   59.6668 H       1  ZINC000550952205    0.1000
     50 H50        -8.5820   -1.2840   61.3033 H       1  ZINC000550952205    0.1100
     51 H51        -6.1097    2.3932   55.3846 H       1  ZINC000550952205    0.1400
@<TRIPOS>BOND
     1     1     2    2
     2     2     3   am
     3     2    15    1
     4     3     4    1
     5     3    30    1
     6     4     5    1
     7     4    31    1
     8     4    32    1
     9     5     6    1
    10     5    14    1
    11     5     7    1
    12     7     8    1
    13     7    33    1
    14     7    34    1
    15     8     9    1
    16     8    35    1
    17     8    36    1
    18     9    10    1
    19     9    37    1
    20     9    38    1
    21    10    11    1
    22    10    39    1
    23    10    40    1
    24    11    12    1
    25    11    13    1
    26    11    14    1
    27    14    41    1
    28    14    42    1
    29    15    16    2
    30    15    17   am
    31    17    18    1
    32    17    43    1
    33    18    29   ar
    34    18    19   ar
    35    19    20   ar
    36    19    44    1
    37    20    21   ar
    38    20    45    1
    39    21    28   ar
    40    21    22    1
    41    22    23    2
    42    23    24    1
    43    23    27    1
    44    24    26    1
    45    24    25    1
    46    24    46    1
    47    25    26    1
    48    25    47    1
    49    25    48    1
    50    26    49    1
    51    26    50    1
    52    27    28    1
    53    28    29   ar
    54    29    51    1
@<TRIPOS>SUBSTRUCTURE
     1 ZINC000550952205        1 TEMP              0 ****  ****    0 ROOT


##########                                Name:    ZINC000637608314
##########                DOCK_Rotatable_Bonds:                   9
##########                         Heavy_Atoms:                  28
##########                    Molecular_Weight:             387.479
##########                DOCK_Rotatable_Bonds:                   9
##########                       Formal_Charge:           0.0499991
##########                     HBond_Acceptors:                   7
##########                        HBond_Donors:                   2
##########                         Heavy_Atoms:                  28
##########                          Grid_Score:          -34.929756
##########                     Grid_vdw_energy:          -32.012009
##########                      Grid_es_energy:           -2.917747
##########           Internal_energy_repulsive:           21.351753

@<TRIPOS>MOLECULE
ZINC000637608314
 57 59 1 0 0
SMALL
USER_CHARGES


@<TRIPOS>ATOM
      1 C1          0.5617    1.5670   47.6469 C.3     1  ZINC000637608314   -0.1400
      2 C2         -0.0744    0.9627   48.9004 C.3     1  ZINC000637608314   -0.0400
      3 C3         -0.5962   -0.4399   48.5819 C.3     1  ZINC000637608314   -0.1500
      4 C4          0.9726    0.8769   50.0127 C.3     1  ZINC000637608314   -0.1500
      5 C5         -1.2181    1.8334   49.3531 C.2     1  ZINC000637608314    0.1900
      6 C6         -0.9637    3.0605   49.8642 C.2     1  ZINC000637608314   -0.2400
      7 C7         -2.0229    3.8758   50.2871 C.2     1  ZINC000637608314    0.0200
      8 C8         -3.3027    3.4172   50.1765 C.2     1  ZINC000637608314   -0.2400
      9 C9         -4.4596    4.2734   50.6231 C.3     1  ZINC000637608314    0.2100
     10 N10        -5.2558    3.5416   51.6113 N.am    1  ZINC000637608314   -0.7300
     11 C11        -6.5216    3.9235   51.8733 C.2     1  ZINC000637608314    0.7100
     12 O12        -7.0020    4.8763   51.2906 O.2     1  ZINC000637608314   -0.5900
     13 N13        -7.2546    3.2493   52.7814 N.am    1  ZINC000637608314   -0.6200
     14 C14        -6.6751    2.1024   53.4849 C.3     1  ZINC000637608314    0.2000
     15 C15        -7.0890    0.8282   52.7947 C.2     1  ZINC000637608314   -0.0400
     16 C16        -8.2167    0.1348   53.0334 C.2     1  ZINC000637608314   -0.1900
     17 C17        -8.2003   -0.9839   52.1691 C.2     1  ZINC000637608314   -0.2200
     18 C18        -7.0637   -0.9072   51.4538 C.2     1  ZINC000637608314   -0.0300
     19 O19        -6.3973    0.1955   51.8330 O.3     1  ZINC000637608314   -0.1700
     20 C20        -8.6310    3.6633   53.0648 C.3     1  ZINC000637608314    0.1300
     21 C21        -9.5857    2.9524   52.1036 C.3     1  ZINC000637608314    0.0700
     22 H22        -9.1731    1.9836   51.8221 H       1  ZINC000637608314    0.0900
     23 C23        -9.7995    3.8171   50.8428 C.3     1  ZINC000637608314   -0.1500
     24 C24       -11.3120    3.6126   50.5555 C.3     1  ZINC000637608314   -0.1600
     25 C25       -11.8707    3.4886   51.9954 C.3     1  ZINC000637608314    0.0500
     26 O26       -10.8616    2.7737   52.7297 O.3     1  ZINC000637608314   -0.3800
     27 C27        -3.5311    2.1380   49.6411 C.2     1  ZINC000637608314    0.5300
     28 O28        -4.6714    1.7154   49.5360 O.2     1  ZINC000637608314   -0.5400
     29 N29        -2.4929    1.3808   49.2385 N.am    1  ZINC000637608314   -0.6000
     30 H30        -0.1842    1.6281   46.8544 H       1  ZINC000637608314    0.0700
     31 H31         0.9334    2.5662   47.8738 H       1  ZINC000637608314    0.0700
     32 H32         1.3889    0.9373   47.3196 H       1  ZINC000637608314    0.0700
     33 H33         0.2311   -1.0697   48.2546 H       1  ZINC000637608314    0.0700
     34 H34        -1.0492   -0.8705   49.4749 H       1  ZINC000637608314    0.0600
     35 H35        -1.3420   -0.3788   47.7894 H       1  ZINC000637608314    0.0700
     36 H36         1.3443    1.8762   50.2397 H       1  ZINC000637608314    0.0700
     37 H37         0.5195    0.4464   50.9057 H       1  ZINC000637608314    0.0600
     38 H38         1.7998    0.2472   49.6854 H       1  ZINC000637608314    0.0700
     39 H39         0.0544    3.4113   49.9465 H       1  ZINC000637608314    0.1500
     40 H40        -1.8276    4.8560   50.6964 H       1  ZINC000637608314    0.1400
     41 H41        -4.0802    5.1921   51.0705 H       1  ZINC000637608314    0.0800
     42 H42        -5.0834    4.5185   49.7635 H       1  ZINC000637608314    0.0800
     43 H43        -4.8721    2.7822   52.0772 H       1  ZINC000637608314    0.4000
     44 H44        -5.5881    2.1829   53.4776 H       1  ZINC000637608314    0.1200
     45 H45        -7.0314    2.0899   54.5149 H       1  ZINC000637608314    0.0900
     46 H46        -8.9865    0.3845   53.7485 H       1  ZINC000637608314    0.1500
     47 H47        -8.9554   -1.7527   52.0971 H       1  ZINC000637608314    0.1500
     48 H48        -6.7432   -1.6108   50.6998 H       1  ZINC000637608314    0.2000
     49 H49        -8.8857    3.3994   54.0913 H       1  ZINC000637608314    0.0800
     50 H50        -8.7202    4.7418   52.9342 H       1  ZINC000637608314    0.1000
     51 H51        -9.5821    4.8650   51.0496 H       1  ZINC000637608314    0.0800
     52 H52        -9.1942    3.4505   50.0137 H       1  ZINC000637608314    0.0900
     53 H53       -11.7349    4.4769   50.0431 H       1  ZINC000637608314    0.0800
     54 H54       -11.4838    2.6985   49.9873 H       1  ZINC000637608314    0.0800
     55 H55       -12.0252    4.4772   52.4277 H       1  ZINC000637608314    0.0600
     56 H56       -12.8045    2.9262   51.9917 H       1  ZINC000637608314    0.0800
     57 H57        -2.6573    0.4989   48.8695 H       1  ZINC000637608314    0.4100
@<TRIPOS>BOND
     1     1     2    1
     2     1    30    1
     3     1    31    1
     4     1    32    1
     5     2     3    1
     6     2     4    1
     7     2     5    1
     8     3    33    1
     9     3    34    1
    10     3    35    1
    11     4    36    1
    12     4    37    1
    13     4    38    1
    14     5    29    1
    15     5     6    2
    16     6     7    1
    17     6    39    1
    18     7     8    2
    19     7    40    1
    20     8     9    1
    21     8    27    1
    22     9    10    1
    23     9    41    1
    24     9    42    1
    25    10    11   am
    26    10    43    1
    27    11    12    2
    28    11    13   am
    29    13    14    1
    30    13    20    1
    31    14    15    1
    32    14    44    1
    33    14    45    1
    34    15    19    1
    35    15    16    2
    36    16    17    1
    37    16    46    1
    38    17    18    2
    39    17    47    1
    40    18    19    1
    41    18    48    1
    42    20    21    1
    43    20    49    1
    44    20    50    1
    45    21    22    1
    46    21    26    1
    47    21    23    1
    48    23    24    1
    49    23    51    1
    50    23    52    1
    51    24    25    1
    52    24    53    1
    53    24    54    1
    54    25    26    1
    55    25    55    1
    56    25    56    1
    57    27    28    2
    58    27    29   am
    59    29    57    1
@<TRIPOS>SUBSTRUCTURE
     1 ZINC000637608314        1 TEMP              0 ****  ****    0 ROOT


##########                                Name:    ZINC000074782190
##########                DOCK_Rotatable_Bonds:                   9
##########                         Heavy_Atoms:                  25
##########                    Molecular_Weight:             341.453
##########                DOCK_Rotatable_Bonds:                   9
##########                       Formal_Charge:          -0.0200006
##########                     HBond_Acceptors:                   5
##########                        HBond_Donors:                   1
##########                         Heavy_Atoms:                  25
##########                          Grid_Score:          -34.929066
##########                     Grid_vdw_energy:          -33.466961
##########                      Grid_es_energy:           -1.462106
##########           Internal_energy_repulsive:           24.141485

@<TRIPOS>MOLECULE
ZINC000074782190
 52 53 1 0 0
SMALL
USER_CHARGES


@<TRIPOS>ATOM
      1 C1         -0.6446   -1.4988   47.8435 C.3     1  ZINC000074782190   -0.1100
      2 C2         -0.9405   -0.4560   46.7965 C.ar    1  ZINC000074782190   -0.1200
      3 C3         -1.5823   -0.8135   45.6269 C.ar    1  ZINC000074782190   -0.0800
      4 C4         -1.8537    0.1428   44.6655 C.ar    1  ZINC000074782190   -0.1500
      5 C5         -1.4839    1.4587   44.8727 C.ar    1  ZINC000074782190   -0.0900
      6 C6         -0.8422    1.8215   46.0411 C.ar    1  ZINC000074782190   -0.2100
      7 C7         -0.5736    0.8651   47.0093 C.ar    1  ZINC000074782190    0.1300
      8 O8          0.0576    1.2194   48.1595 O.3     1  ZINC000074782190   -0.3000
      9 C9         -0.6588    2.0698   49.0571 C.3     1  ZINC000074782190    0.0700
     10 H10        -1.0726    2.9140   48.5056 H       1  ZINC000074782190    0.0800
     11 C11         0.2916    2.5846   50.1399 C.3     1  ZINC000074782190   -0.1800
     12 C12        -1.7955    1.2804   49.7095 C.3     1  ZINC000074782190    0.1400
     13 N13        -2.6746    2.2000   50.4359 N.am    1  ZINC000074782190   -0.7500
     14 C14        -3.9670    2.3239   50.0742 C.2     1  ZINC000074782190    0.7100
     15 O15        -4.4034    1.6723   49.1450 O.2     1  ZINC000074782190   -0.5900
     16 N16        -4.7757    3.1699   50.7425 N.am    1  ZINC000074782190   -0.6200
     17 C17        -6.1806    3.3045   50.3494 C.3     1  ZINC000074782190    0.1800
     18 C18        -7.0279    2.3849   51.1904 C.ar    1  ZINC000074782190   -0.1600
     19 C19        -8.3141    2.7524   51.5543 C.ar    1  ZINC000074782190   -0.0500
     20 C20        -9.0574    1.8742   52.3284 C.ar    1  ZINC000074782190   -0.1800
     21 C21        -8.4955    0.6704   52.7085 C.ar    1  ZINC000074782190    0.1000
     22 N22        -7.2684    0.3537   52.3437 N.ar    1  ZINC000074782190   -0.4900
     23 C23        -6.5347    1.1615   51.6038 C.ar    1  ZINC000074782190    0.1100
     24 C24        -4.2500    3.9550   51.8621 C.3     1  ZINC000074782190    0.1300
     25 C25        -3.9132    5.3677   51.3807 C.3     1  ZINC000074782190   -0.1800
     26 C26        -5.3021    4.0311   52.9702 C.3     1  ZINC000074782190   -0.1800
     27 H27        -1.4843   -1.5678   48.5351 H       1  ZINC000074782190    0.0700
     28 H28        -0.4906   -2.4643   47.3614 H       1  ZINC000074782190    0.0600
     29 H29         0.2550   -1.2187   48.3913 H       1  ZINC000074782190    0.0700
     30 H30        -1.8721   -1.8409   45.4629 H       1  ZINC000074782190    0.1300
     31 H31        -2.3549   -0.1389   43.7514 H       1  ZINC000074782190    0.1200
     32 H32        -1.6967    2.2037   44.1201 H       1  ZINC000074782190    0.1200
     33 H33        -0.5533    2.8496   46.2023 H       1  ZINC000074782190    0.1300
     34 H34         0.7054    1.7404   50.6915 H       1  ZINC000074782190    0.0700
     35 H35         1.1014    3.1471   49.6751 H       1  ZINC000074782190    0.0700
     36 H36        -0.2549    3.2332   50.8246 H       1  ZINC000074782190    0.0800
     37 H37        -2.3676    0.7633   48.9391 H       1  ZINC000074782190    0.0800
     38 H38        -1.3792    0.5508   50.4042 H       1  ZINC000074782190    0.0900
     39 H39        -2.3265    2.7198   51.1772 H       1  ZINC000074782190    0.4100
     40 H40        -6.5029    4.3347   50.5001 H       1  ZINC000074782190    0.0900
     41 H41        -6.2906    3.0395   49.2978 H       1  ZINC000074782190    0.1000
     42 H42        -8.7272    3.7004   51.2427 H       1  ZINC000074782190    0.1400
     43 H43       -10.0627    2.1282   52.6306 H       1  ZINC000074782190    0.1300
     44 H44        -9.0678   -0.0188   53.3117 H       1  ZINC000074782190    0.1600
     45 H45        -5.5336    0.8677   51.3245 H       1  ZINC000074782190    0.1500
     46 H46        -3.3491    3.4784   52.2486 H       1  ZINC000074782190    0.1000
     47 H47        -4.8286    5.8763   51.0783 H       1  ZINC000074782190    0.0600
     48 H48        -3.4386    5.9237   52.1892 H       1  ZINC000074782190    0.0700
     49 H49        -3.2324    5.3094   50.5314 H       1  ZINC000074782190    0.0600
     50 H50        -5.4578    3.0382   53.3923 H       1  ZINC000074782190    0.0700
     51 H51        -4.9582    4.7085   53.7519 H       1  ZINC000074782190    0.0700
     52 H52        -6.2401    4.4009   52.5558 H       1  ZINC000074782190    0.0700
@<TRIPOS>BOND
     1     1     2    1
     2     1    27    1
     3     1    28    1
     4     1    29    1
     5     2     7   ar
     6     2     3   ar
     7     3     4   ar
     8     3    30    1
     9     4     5   ar
    10     4    31    1
    11     5     6   ar
    12     5    32    1
    13     6     7   ar
    14     6    33    1
    15     7     8    1
    16     8     9    1
    17     9    10    1
    18     9    11    1
    19     9    12    1
    20    11    34    1
    21    11    35    1
    22    11    36    1
    23    12    13    1
    24    12    37    1
    25    12    38    1
    26    13    14   am
    27    13    39    1
    28    14    15    2
    29    14    16   am
    30    16    17    1
    31    16    24    1
    32    17    18    1
    33    17    40    1
    34    17    41    1
    35    18    23   ar
    36    18    19   ar
    37    19    20   ar
    38    19    42    1
    39    20    21   ar
    40    20    43    1
    41    21    22   ar
    42    21    44    1
    43    22    23   ar
    44    23    45    1
    45    24    25    1
    46    24    26    1
    47    24    46    1
    48    25    47    1
    49    25    48    1
    50    25    49    1
    51    26    50    1
    52    26    51    1
    53    26    52    1
@<TRIPOS>SUBSTRUCTURE
     1 ZINC000074782190        1 TEMP              0 ****  ****    0 ROOT


##########                                Name:    ZINC000541000201
##########                DOCK_Rotatable_Bonds:                  10
##########                         Heavy_Atoms:                  30
##########                    Molecular_Weight:             420.413
##########                DOCK_Rotatable_Bonds:                  10
##########                       Formal_Charge:               -0.03
##########                     HBond_Acceptors:                   9
##########                        HBond_Donors:                   1
##########                         Heavy_Atoms:                  30
##########                          Grid_Score:          -34.916077
##########                     Grid_vdw_energy:          -34.579609
##########                      Grid_es_energy:           -0.336466
##########           Internal_energy_repulsive:           13.446835

@<TRIPOS>MOLECULE
ZINC000541000201
 52 54 1 0 0
SMALL
USER_CHARGES


@<TRIPOS>ATOM
      1 C1          1.7451    1.2485   50.9513 C.3     1  ZINC000541000201    0.0400
      2 O2          0.4587    1.5173   50.3339 O.3     1  ZINC000541000201   -0.3500
      3 C3          0.4305    2.4434   49.3626 C.2     1  ZINC000541000201    0.4500
      4 O4          1.4536    2.9819   49.0115 O.2     1  ZINC000541000201   -0.4900
      5 C5         -0.8770    2.8114   48.7101 C.3     1  ZINC000541000201    0.2100
      6 H6         -0.8417    3.8518   48.3868 H       1  ZINC000541000201    0.1400
      7 N7         -1.9688    2.6355   49.6710 N.am    1  ZINC000541000201   -0.7100
      8 C8         -2.2165    3.5884   50.5914 C.2     1  ZINC000541000201    0.5800
      9 O9         -1.5349    4.5946   50.6233 O.2     1  ZINC000541000201   -0.5300
     10 C10        -3.3154    3.4103   51.5608 C.ar    1  ZINC000541000201   -0.2300
     11 C11        -3.3667    4.1849   52.7289 C.ar    1  ZINC000541000201    0.0200
     12 C12        -4.4136    3.9817   53.6045 C.ar    1  ZINC000541000201   -0.2000
     13 C13        -5.3763    3.0236   53.3032 C.ar    1  ZINC000541000201    0.3500
     14 O14        -6.4066    2.8199   54.1593 O.3     1  ZINC000541000201   -0.2900
     15 C15        -7.3576    1.8146   53.8024 C.3     1  ZINC000541000201    0.0800
     16 C16        -8.3502    1.5700   54.9660 C.3     1  ZINC000541000201   -0.1400
     17 C17        -9.5857    0.9789   54.2427 C.3     1  ZINC000541000201   -0.1200
     18 C18        -9.6652    1.7709   52.9212 C.3     1  ZINC000541000201   -0.1200
     19 C19        -8.2485    2.3022   52.6413 C.3     1  ZINC000541000201   -0.1200
     20 N20        -5.3004    2.3081   52.1913 N.ar    1  ZINC000541000201   -0.5400
     21 C21        -4.3222    2.4727   51.3259 C.ar    1  ZINC000541000201    0.1800
     22 C22        -1.1105    1.9220   47.5161 C.ar    1  ZINC000541000201   -0.1300
     23 C23        -1.2398    0.5561   47.6878 C.ar    1  ZINC000541000201   -0.0700
     24 C24        -1.4539   -0.2613   46.5949 C.ar    1  ZINC000541000201   -0.1300
     25 C25        -1.5396    0.2894   45.3245 C.ar    1  ZINC000541000201    0.1200
     26 O26        -1.7506   -0.5126   44.2479 O.3     1  ZINC000541000201   -0.3200
     27 C27        -1.1052   -0.1435   43.0275 C.3     1  ZINC000541000201    0.4100
     28 F28         0.2083    0.2559   43.2969 F       1  ZINC000541000201   -0.2000
     29 F29        -1.0903   -1.2393   42.1579 F       1  ZINC000541000201   -0.2000
     30 C30        -1.4100    1.6602   45.1550 C.ar    1  ZINC000541000201   -0.1900
     31 C31        -1.2008    2.4738   46.2517 C.ar    1  ZINC000541000201   -0.0500
     32 H32         1.6273    0.4825   51.7178 H       1  ZINC000541000201    0.1000
     33 H33         2.4461    0.8991   50.1932 H       1  ZINC000541000201    0.0600
     34 H34         2.1277    2.1621   51.4064 H       1  ZINC000541000201    0.0600
     35 H35        -2.5134    1.8332   49.6449 H       1  ZINC000541000201    0.4100
     36 H36        -2.6053    4.9218   52.9381 H       1  ZINC000541000201    0.1600
     37 H37        -4.4848    4.5600   54.5140 H       1  ZINC000541000201    0.1500
     38 H38        -6.8495    0.8894   53.5309 H       1  ZINC000541000201    0.1000
     39 H39        -7.9409    0.8541   55.6789 H       1  ZINC000541000201    0.0700
     40 H40        -8.6040    2.5074   55.4608 H       1  ZINC000541000201    0.0800
     41 H41        -9.4393   -0.0827   54.0431 H       1  ZINC000541000201    0.0700
     42 H42       -10.4864    1.1357   54.8362 H       1  ZINC000541000201    0.0700
     43 H43        -9.9847    1.1149   52.1114 H       1  ZINC000541000201    0.0700
     44 H44       -10.3620    2.6025   53.0256 H       1  ZINC000541000201    0.0700
     45 H45        -8.2578    3.3917   52.6098 H       1  ZINC000541000201    0.0800
     46 H46        -7.8805    1.9042   51.6957 H       1  ZINC000541000201    0.0700
     47 H47        -4.2939    1.8707   50.4297 H       1  ZINC000541000201    0.1600
     48 H48        -1.1731    0.1279   48.6770 H       1  ZINC000541000201    0.1300
     49 H49        -1.5542   -1.3282   46.7295 H       1  ZINC000541000201    0.1400
     50 H50        -1.6477    0.6806   42.5643 H       1  ZINC000541000201    0.1900
     51 H51        -1.4760    2.0912   44.1670 H       1  ZINC000541000201    0.1400
     52 H52        -1.1002    3.5411   46.1203 H       1  ZINC000541000201    0.1400
@<TRIPOS>BOND
     1     1     2    1
     2     1    32    1
     3     1    33    1
     4     1    34    1
     5     2     3    1
     6     3     4    2
     7     3     5    1
     8     5     6    1
     9     5     7    1
    10     5    22    1
    11     7     8   am
    12     7    35    1
    13     8     9    2
    14     8    10    1
    15    10    21   ar
    16    10    11   ar
    17    11    12   ar
    18    11    36    1
    19    12    13   ar
    20    12    37    1
    21    13    14    1
    22    13    20   ar
    23    14    15    1
    24    15    19    1
    25    15    16    1
    26    15    38    1
    27    16    17    1
    28    16    39    1
    29    16    40    1
    30    17    18    1
    31    17    41    1
    32    17    42    1
    33    18    19    1
    34    18    43    1
    35    18    44    1
    36    19    45    1
    37    19    46    1
    38    20    21   ar
    39    21    47    1
    40    22    31   ar
    41    22    23   ar
    42    23    24   ar
    43    23    48    1
    44    24    25   ar
    45    24    49    1
    46    25    26    1
    47    25    30   ar
    48    26    27    1
    49    27    28    1
    50    27    29    1
    51    27    50    1
    52    30    31   ar
    53    30    51    1
    54    31    52    1
@<TRIPOS>SUBSTRUCTURE
     1 ZINC000541000201        1 TEMP              0 ****  ****    0 ROOT


##########                                Name:    ZINC000114394234
##########                DOCK_Rotatable_Bonds:                   9
##########                         Heavy_Atoms:                  27
##########                    Molecular_Weight:             365.392
##########                DOCK_Rotatable_Bonds:                   9
##########                       Formal_Charge:           0.0300002
##########                     HBond_Acceptors:                   8
##########                        HBond_Donors:                   3
##########                         Heavy_Atoms:                  27
##########                          Grid_Score:          -34.855927
##########                     Grid_vdw_energy:          -32.182671
##########                      Grid_es_energy:           -2.673257
##########           Internal_energy_repulsive:           13.875088

@<TRIPOS>MOLECULE
ZINC000114394234
 46 48 1 0 0
SMALL
USER_CHARGES


@<TRIPOS>ATOM
      1 C1         -4.1018    4.6555   51.2845 C.3     1  ZINC000114394234   -0.1600
      2 C2         -4.7675    3.3198   50.9476 C.3     1  ZINC000114394234    0.1300
      3 H3         -5.0465    2.8101   51.8698 H       1  ZINC000114394234    0.1200
      4 N4         -5.9667    3.5615   50.1413 N.am    1  ZINC000114394234   -0.7100
      5 C5         -7.0733    4.0729   50.7159 C.2     1  ZINC000114394234    0.5200
      6 O6         -7.0770    4.3316   51.9008 O.2     1  ZINC000114394234   -0.5100
      7 C7         -8.3061    4.3232   49.8862 C.3     1  ZINC000114394234    0.0400
      8 O8         -9.4386    4.4642   50.7462 O.3     1  ZINC000114394234   -0.2900
      9 C9        -10.6186    4.8015   50.1623 C.ar    1  ZINC000114394234    0.1300
     10 C10       -10.6421    5.2412   48.8467 C.ar    1  ZINC000114394234   -0.2100
     11 C11       -11.8429    5.5831   48.2553 C.ar    1  ZINC000114394234   -0.0800
     12 C12       -13.0205    5.4876   48.9735 C.ar    1  ZINC000114394234   -0.1600
     13 C13       -12.9996    5.0501   50.2850 C.ar    1  ZINC000114394234   -0.0800
     14 C14       -11.8021    4.7012   50.8790 C.ar    1  ZINC000114394234   -0.1500
     15 C15        -3.8042    2.4603   50.1702 C.2     1  ZINC000114394234    0.5100
     16 O16        -4.1388    1.3535   49.8039 O.2     1  ZINC000114394234   -0.5100
     17 N17        -2.5710    2.9214   49.8822 N.am    1  ZINC000114394234   -0.6700
     18 C18        -1.6766    2.1232   49.1603 C.ar    1  ZINC000114394234    0.1300
     19 C19        -0.4862    1.7100   49.7454 C.ar    1  ZINC000114394234   -0.1200
     20 C20         0.3997    0.9215   49.0355 C.ar    1  ZINC000114394234   -0.1000
     21 C21         0.1070    0.5407   47.7414 C.ar    1  ZINC000114394234   -0.0900
     22 C22        -1.0847    0.9511   47.1463 C.ar    1  ZINC000114394234    0.0000
     23 C23        -1.4007    0.5430   45.7549 C.2     1  ZINC000114394234    0.2700
     24 N24        -1.8059    1.3445   44.7943 N.2     1  ZINC000114394234   -0.3000
     25 N25        -1.9855    0.5474   43.6521 N.pl3   1  ZINC000114394234   -0.4800
     26 C26        -1.6690   -0.7102   44.0098 C.2     1  ZINC000114394234    0.2700
     27 N27        -1.3149   -0.7021   45.2677 N.2     1  ZINC000114394234   -0.5300
     28 C28        -1.9807    1.7396   47.8627 C.ar    1  ZINC000114394234   -0.0800
     29 H29        -3.8228    5.1653   50.3623 H       1  ZINC000114394234    0.0700
     30 H30        -4.7985    5.2772   51.8468 H       1  ZINC000114394234    0.0800
     31 H31        -3.2096    4.4757   51.8844 H       1  ZINC000114394234    0.0800
     32 H32        -5.9640    3.3534   49.1939 H       1  ZINC000114394234    0.4100
     33 H33        -8.1744    5.2365   49.3061 H       1  ZINC000114394234    0.1000
     34 H34        -8.4657    3.4832   49.2100 H       1  ZINC000114394234    0.1000
     35 H35        -9.7224    5.3167   48.2855 H       1  ZINC000114394234    0.1300
     36 H36       -11.8617    5.9254   47.2312 H       1  ZINC000114394234    0.1300
     37 H37       -13.9582    5.7556   48.5095 H       1  ZINC000114394234    0.1300
     38 H38       -13.9208    4.9767   50.8440 H       1  ZINC000114394234    0.1300
     39 H39       -11.7864    4.3594   51.9034 H       1  ZINC000114394234    0.1300
     40 H40        -2.3035    3.8066   50.1751 H       1  ZINC000114394234    0.4200
     41 H41        -0.2523    2.0058   50.7574 H       1  ZINC000114394234    0.1300
     42 H42         1.3239    0.6027   49.4946 H       1  ZINC000114394234    0.1400
     43 H43         0.8018   -0.0751   47.1895 H       1  ZINC000114394234    0.1400
     44 H44        -2.2801    0.8451   42.7772 H       1  ZINC000114394234    0.4400
     45 H45        -1.6980   -1.5772   43.3664 H       1  ZINC000114394234    0.2300
     46 H46        -2.9053    2.0600   47.4060 H       1  ZINC000114394234    0.1500
@<TRIPOS>BOND
     1     1     2    1
     2     1    29    1
     3     1    30    1
     4     1    31    1
     5     2     3    1
     6     2     4    1
     7     2    15    1
     8     4     5   am
     9     4    32    1
    10     5     6    2
    11     5     7    1
    12     7     8    1
    13     7    33    1
    14     7    34    1
    15     8     9    1
    16     9    14   ar
    17     9    10   ar
    18    10    11   ar
    19    10    35    1
    20    11    12   ar
    21    11    36    1
    22    12    13   ar
    23    12    37    1
    24    13    14   ar
    25    13    38    1
    26    14    39    1
    27    15    16    2
    28    15    17   am
    29    17    18    1
    30    17    40    1
    31    18    28   ar
    32    18    19   ar
    33    19    20   ar
    34    19    41    1
    35    20    21   ar
    36    20    42    1
    37    21    22   ar
    38    21    43    1
    39    22    23    1
    40    22    28   ar
    41    23    27    1
    42    23    24    2
    43    24    25    1
    44    25    26    1
    45    25    44    1
    46    26    27    2
    47    26    45    1
    48    28    46    1
@<TRIPOS>SUBSTRUCTURE
     1 ZINC000114394234        1 TEMP              0 ****  ****    0 ROOT


##########                                Name:    ZINC000442010511
##########                DOCK_Rotatable_Bonds:                  11
##########                         Heavy_Atoms:                  31
##########                    Molecular_Weight:             422.481
##########                DOCK_Rotatable_Bonds:                  11
##########                       Formal_Charge:          -0.0200005
##########                     HBond_Acceptors:                   7
##########                        HBond_Donors:                   2
##########                         Heavy_Atoms:                  31
##########                          Grid_Score:          -34.835762
##########                     Grid_vdw_energy:          -34.603760
##########                      Grid_es_energy:           -0.232002
##########           Internal_energy_repulsive:            8.474709

@<TRIPOS>MOLECULE
ZINC000442010511
 57 59 1 0 0
SMALL
USER_CHARGES


@<TRIPOS>ATOM
      1 C1         -8.8770    1.1623   59.9896 C.3     1  ZINC000442010511   -0.1500
      2 C2         -8.0093    0.1293   59.2679 C.3     1  ZINC000442010511   -0.0500
      3 C3         -8.8516   -1.0647   58.8991 C.2     1  ZINC000442010511    0.0000
      4 C4         -9.0548   -2.1510   59.6659 C.2     1  ZINC000442010511   -0.2100
      5 C5         -9.9016   -3.0156   58.9350 C.2     1  ZINC000442010511   -0.1900
      6 C6        -10.1652   -2.4060   57.7654 C.2     1  ZINC000442010511   -0.0300
      7 C7        -11.0309   -2.9550   56.6608 C.3     1  ZINC000442010511    0.2400
      8 H8        -10.4503   -3.6518   56.0563 H       1  ZINC000442010511    0.1400
      9 C9        -12.2311   -3.6841   57.2680 C.3     1  ZINC000442010511    0.0500
     10 O10       -13.0632   -4.1863   56.2204 O.3     1  ZINC000442010511   -0.3800
     11 C11       -14.2401   -4.8528   56.6818 C.3     1  ZINC000442010511    0.0300
     12 N12       -11.5038   -1.8540   55.8178 N.am    1  ZINC000442010511   -0.6900
     13 C13       -10.6772   -1.2963   54.9112 C.2     1  ZINC000442010511    0.5200
     14 O14        -9.5406   -1.7052   54.7940 O.2     1  ZINC000442010511   -0.5100
     15 C15       -11.1598   -0.1752   54.0507 C.2     1  ZINC000442010511    0.5100
     16 O16       -12.1861    0.4082   54.3332 O.2     1  ZINC000442010511   -0.5000
     17 N17       -10.4559    0.1888   52.9606 N.am    1  ZINC000442010511   -0.6300
     18 C18       -10.9078    1.2387   52.1548 C.ar    1  ZINC000442010511    0.1200
     19 C19       -12.1014    1.1168   51.4578 C.ar    1  ZINC000442010511   -0.1000
     20 C20       -12.5458    2.1558   50.6621 C.ar    1  ZINC000442010511   -0.1300
     21 C21       -11.8040    3.3179   50.5581 C.ar    1  ZINC000442010511   -0.0900
     22 C22       -10.6133    3.4472   51.2489 C.ar    1  ZINC000442010511   -0.1700
     23 C23       -10.1632    2.4132   52.0538 C.ar    1  ZINC000442010511    0.1000
     24 O24        -8.9929    2.5387   52.7337 O.3     1  ZINC000442010511   -0.2600
     25 C25        -7.8355    2.5097   52.0223 C.ar    1  ZINC000442010511    0.0800
     26 C26        -7.1798    3.6929   51.7133 C.ar    1  ZINC000442010511   -0.1300
     27 C27        -6.0032    3.6606   50.9903 C.ar    1  ZINC000442010511   -0.1100
     28 C28        -5.4791    2.4505   50.5742 C.ar    1  ZINC000442010511   -0.0800
     29 C29        -4.1955    2.4184   49.7852 C.3     1  ZINC000442010511   -0.1200
     30 C30        -6.1302    1.2701   50.8812 C.ar    1  ZINC000442010511   -0.1100
     31 C31        -7.3044    1.2964   51.6085 C.ar    1  ZINC000442010511   -0.1100
     32 O32        -9.5311   -1.2221   57.7515 O.3     1  ZINC000442010511   -0.1600
     33 H33        -9.6875    1.4783   59.3329 H       1  ZINC000442010511    0.0600
     34 H34        -9.2939    0.7186   60.8936 H       1  ZINC000442010511    0.0600
     35 H35        -8.2678    2.0259   60.2563 H       1  ZINC000442010511    0.0700
     36 H36        -7.5922    0.5730   58.3639 H       1  ZINC000442010511    0.0900
     37 H37        -7.1987   -0.1867   59.9246 H       1  ZINC000442010511    0.0800
     38 H38        -8.6486   -2.3289   60.6506 H       1  ZINC000442010511    0.1500
     39 H39       -10.2665   -3.9807   59.2544 H       1  ZINC000442010511    0.1500
     40 H40       -11.8799   -4.5132   57.8822 H       1  ZINC000442010511    0.0700
     41 H41       -12.8028   -2.9911   57.8854 H       1  ZINC000442010511    0.0700
     42 H42       -14.8176   -5.2042   55.8267 H       1  ZINC000442010511    0.0900
     43 H43       -13.9566   -5.7024   57.3028 H       1  ZINC000442010511    0.0400
     44 H44       -14.8439   -4.1598   57.2677 H       1  ZINC000442010511    0.0400
     45 H45       -12.4119   -1.5263   55.9124 H       1  ZINC000442010511    0.4200
     46 H46        -9.6358   -0.2775   52.7350 H       1  ZINC000442010511    0.4300
     47 H47       -12.6829    0.2101   51.5368 H       1  ZINC000442010511    0.1600
     48 H48       -13.4749    2.0595   50.1199 H       1  ZINC000442010511    0.1300
     49 H49       -12.1555    4.1270   49.9350 H       1  ZINC000442010511    0.1300
     50 H50       -10.0362    4.3561   51.1647 H       1  ZINC000442010511    0.1300
     51 H51        -7.5892    4.6383   52.0374 H       1  ZINC000442010511    0.1300
     52 H52        -5.4924    4.5812   50.7495 H       1  ZINC000442010511    0.1300
     53 H53        -3.3503    2.3420   50.4693 H       1  ZINC000442010511    0.0700
     54 H54        -4.2011    1.5571   49.1171 H       1  ZINC000442010511    0.0700
     55 H55        -4.1066    3.3327   49.1985 H       1  ZINC000442010511    0.0700
     56 H56        -5.7187    0.3263   50.5550 H       1  ZINC000442010511    0.1300
     57 H57        -7.8125    0.3740   51.8481 H       1  ZINC000442010511    0.1300
@<TRIPOS>BOND
     1     1     2    1
     2     1    33    1
     3     1    34    1
     4     1    35    1
     5     2     3    1
     6     2    36    1
     7     2    37    1
     8     3    32    1
     9     3     4    2
    10     4     5    1
    11     4    38    1
    12     5     6    2
    13     5    39    1
    14     6     7    1
    15     6    32    1
    16     7     8    1
    17     7     9    1
    18     7    12    1
    19     9    10    1
    20     9    40    1
    21     9    41    1
    22    10    11    1
    23    11    42    1
    24    11    43    1
    25    11    44    1
    26    12    13   am
    27    12    45    1
    28    13    14    2
    29    13    15    1
    30    15    16    2
    31    15    17   am
    32    17    18    1
    33    17    46    1
    34    18    23   ar
    35    18    19   ar
    36    19    20   ar
    37    19    47    1
    38    20    21   ar
    39    20    48    1
    40    21    22   ar
    41    21    49    1
    42    22    23   ar
    43    22    50    1
    44    23    24    1
    45    24    25    1
    46    25    31   ar
    47    25    26   ar
    48    26    27   ar
    49    26    51    1
    50    27    28   ar
    51    27    52    1
    52    28    29    1
    53    28    30   ar
    54    29    53    1
    55    29    54    1
    56    29    55    1
    57    30    31   ar
    58    30    56    1
    59    31    57    1
@<TRIPOS>SUBSTRUCTURE
     1 ZINC000442010511        1 TEMP              0 ****  ****    0 ROOT


##########                                Name:    ZINC000523878927
##########                DOCK_Rotatable_Bonds:                   8
##########                         Heavy_Atoms:                  27
##########                    Molecular_Weight:             376.474
##########                DOCK_Rotatable_Bonds:                   8
##########                       Formal_Charge:          0.00999957
##########                     HBond_Acceptors:                   7
##########                        HBond_Donors:                   3
##########                         Heavy_Atoms:                  27
##########                          Grid_Score:          -34.834194
##########                     Grid_vdw_energy:          -34.000950
##########                      Grid_es_energy:           -0.833246
##########           Internal_energy_repulsive:            8.223447

@<TRIPOS>MOLECULE
ZINC000523878927
 56 58 1 0 0
SMALL
USER_CHARGES


@<TRIPOS>ATOM
      1 C1         -7.0083    2.3465   58.2823 C.3     1  ZINC000523878927   -0.1500
      2 C2         -8.3604    2.8070   57.7341 C.3     1  ZINC000523878927   -0.0900
      3 H3         -8.5345    3.8441   58.0206 H       1  ZINC000523878927    0.0700
      4 C4         -9.4709    1.9257   58.3097 C.3     1  ZINC000523878927   -0.1200
      5 C5         -9.2265    0.4699   57.9076 C.3     1  ZINC000523878927   -0.1200
      6 C6         -9.2239    0.3557   56.3818 C.3     1  ZINC000523878927   -0.1100
      7 C7         -8.1135    1.2370   55.8064 C.3     1  ZINC000523878927   -0.1000
      8 H8         -7.1502    0.9089   56.1968 H       1  ZINC000523878927    0.0800
      9 C9         -8.1110    1.1228   54.2806 C.3     1  ZINC000523878927    0.1400
     10 N10        -7.0585    1.9795   53.7285 N.am    1  ZINC000523878927   -0.7400
     11 C11        -6.4916    1.6726   52.5450 C.2     1  ZINC000523878927    0.7200
     12 O12        -6.8526    0.6841   51.9361 O.2     1  ZINC000523878927   -0.5800
     13 N13        -5.5244    2.4615   52.0365 N.am    1  ZINC000523878927   -0.6400
     14 C14        -4.9934    3.6843   52.6660 C.3     1  ZINC000523878927    0.1000
     15 C15        -3.5723    3.8509   52.0724 C.3     1  ZINC000523878927   -0.1400
     16 C16        -3.7883    3.3791   50.6101 C.3     1  ZINC000523878927    0.1500
     17 H17        -4.1892    4.1878   49.9992 H       1  ZINC000523878927    0.1100
     18 N18        -2.5381    2.8716   50.0393 N.am    1  ZINC000523878927   -0.7300
     19 C19        -2.5443    2.2641   48.8362 C.2     1  ZINC000523878927    0.7100
     20 O20        -3.5873    2.1387   48.2239 O.2     1  ZINC000523878927   -0.5700
     21 N21        -1.3944    1.7958   48.3118 N.am    1  ZINC000523878927   -0.6800
     22 C22        -1.4010    1.1645   47.0616 C.ar    1  ZINC000523878927    0.1500
     23 C23        -1.2832    1.9184   45.9016 C.ar    1  ZINC000523878927   -0.1200
     24 C24        -1.2894    1.2939   44.6697 C.ar    1  ZINC000523878927   -0.1300
     25 C25        -1.4134   -0.0829   44.5910 C.ar    1  ZINC000523878927    0.0800
     26 F26        -1.4196   -0.6919   43.3851 F       1  ZINC000523878927   -0.1400
     27 C27        -1.5305   -0.8366   45.7467 C.ar    1  ZINC000523878927   -0.1300
     28 C28        -1.5194   -0.2164   46.9808 C.ar    1  ZINC000523878927   -0.0900
     29 C29        -4.8198    2.2418   50.7649 C.3     1  ZINC000523878927    0.1200
     30 C30        -8.3578    2.6928   56.2084 C.3     1  ZINC000523878927   -0.1100
     31 H31        -6.2171    2.9744   57.8723 H       1  ZINC000523878927    0.0500
     32 H32        -7.0101    2.4279   59.3692 H       1  ZINC000523878927    0.0500
     33 H33        -6.8342    1.3094   57.9959 H       1  ZINC000523878927    0.0600
     34 H34        -9.4727    2.0071   59.3966 H       1  ZINC000523878927    0.0600
     35 H35       -10.4342    2.2538   57.9191 H       1  ZINC000523878927    0.0600
     36 H36        -8.2633    0.1419   58.2980 H       1  ZINC000523878927    0.0700
     37 H37       -10.0177   -0.1579   58.3176 H       1  ZINC000523878927    0.0600
     38 H38        -9.0499   -0.6815   56.0954 H       1  ZINC000523878927    0.0600
     39 H39       -10.1873    0.6838   55.9913 H       1  ZINC000523878927    0.0600
     40 H40        -7.9248    0.0879   53.9940 H       1  ZINC000523878927    0.0700
     41 H41        -9.0786    1.4393   53.8910 H       1  ZINC000523878927    0.0700
     42 H42        -6.7697    2.7674   54.2149 H       1  ZINC000523878927    0.3900
     43 H43        -5.6144    4.5429   52.4105 H       1  ZINC000523878927    0.0800
     44 H44        -4.9407    3.5618   53.7478 H       1  ZINC000523878927    0.0800
     45 H45        -3.2556    4.8935   52.1037 H       1  ZINC000523878927    0.1000
     46 H46        -2.8561    3.2110   52.5877 H       1  ZINC000523878927    0.0800
     47 H47        -1.7059    2.9728   50.5272 H       1  ZINC000523878927    0.4000
     48 H48        -0.5625    1.8960   48.8003 H       1  ZINC000523878927    0.4100
     49 H49        -1.1872    2.9925   45.9626 H       1  ZINC000523878927    0.1400
     50 H50        -1.1978    1.8800   43.7672 H       1  ZINC000523878927    0.1400
     51 H51        -1.6270   -1.9105   45.6832 H       1  ZINC000523878927    0.1400
     52 H52        -1.6104   -0.8046   47.8820 H       1  ZINC000523878927    0.1500
     53 H53        -4.3100    1.2785   50.7796 H       1  ZINC000523878927    0.0700
     54 H54        -5.5330    2.2737   49.9413 H       1  ZINC000523878927    0.0800
     55 H55        -9.3212    3.0209   55.8179 H       1  ZINC000523878927    0.0700
     56 H56        -7.5667    3.3207   55.7984 H       1  ZINC000523878927    0.0700
@<TRIPOS>BOND
     1     1     2    1
     2     1    31    1
     3     1    32    1
     4     1    33    1
     5     2     3    1
     6     2    30    1
     7     2     4    1
     8     4     5    1
     9     4    34    1
    10     4    35    1
    11     5     6    1
    12     5    36    1
    13     5    37    1
    14     6     7    1
    15     6    38    1
    16     6    39    1
    17     7     8    1
    18     7     9    1
    19     7    30    1
    20     9    10    1
    21     9    40    1
    22     9    41    1
    23    10    11   am
    24    10    42    1
    25    11    12    2
    26    11    13   am
    27    13    29    1
    28    13    14    1
    29    14    15    1
    30    14    43    1
    31    14    44    1
    32    15    16    1
    33    15    45    1
    34    15    46    1
    35    16    17    1
    36    16    18    1
    37    16    29    1
    38    18    19   am
    39    18    47    1
    40    19    20    2
    41    19    21   am
    42    21    22    1
    43    21    48    1
    44    22    28   ar
    45    22    23   ar
    46    23    24   ar
    47    23    49    1
    48    24    25   ar
    49    24    50    1
    50    25    26    1
    51    25    27   ar
    52    27    28   ar
    53    27    51    1
    54    28    52    1
    55    29    53    1
    56    29    54    1
    57    30    55    1
    58    30    56    1
@<TRIPOS>SUBSTRUCTURE
     1 ZINC000523878927        1 TEMP              0 ****  ****    0 ROOT


##########                                Name:    ZINC000369046711
##########                DOCK_Rotatable_Bonds:                   8
##########                         Heavy_Atoms:                  26
##########                    Molecular_Weight:             367.467
##########                DOCK_Rotatable_Bonds:                   8
##########                       Formal_Charge:        -7.63685e-07
##########                     HBond_Acceptors:                   8
##########                        HBond_Donors:                   1
##########                         Heavy_Atoms:                  26
##########                          Grid_Score:          -34.814636
##########                     Grid_vdw_energy:          -33.795795
##########                      Grid_es_energy:           -1.018843
##########           Internal_energy_repulsive:           38.637177

@<TRIPOS>MOLECULE
ZINC000369046711
 56 58 1 0 0
SMALL
USER_CHARGES


@<TRIPOS>ATOM
      1 C1         -6.0762    3.3336   50.1974 C.3     1  ZINC000369046711   -0.1800
      2 C2         -5.4329    2.8491   51.4983 C.3     1  ZINC000369046711    0.1400
      3 C3         -5.8235    3.7883   52.6412 C.3     1  ZINC000369046711   -0.1800
      4 C4         -5.9208    1.4335   51.8122 C.3     1  ZINC000369046711   -0.1400
      5 O5         -3.9884    2.8415   51.3503 O.3     1  ZINC000369046711   -0.3700
      6 C6         -3.4773    2.0595   50.3808 C.2     1  ZINC000369046711    0.6500
      7 O7         -4.2163    1.3829   49.6933 O.2     1  ZINC000369046711   -0.5700
      8 N8         -2.1461    2.0269   50.1731 N.am    1  ZINC000369046711   -0.7100
      9 C9         -1.5902    1.1772   49.1169 C.3     1  ZINC000369046711    0.1800
     10 H10        -2.2950    0.3749   48.8988 H       1  ZINC000369046711    0.0900
     11 C11        -0.2774    0.5676   49.6073 C.3     1  ZINC000369046711   -0.1300
     12 C12         0.7017    1.7122   49.8938 C.3     1  ZINC000369046711   -0.1200
     13 C13         1.0004    2.4310   48.5814 C.3     1  ZINC000369046711   -0.1200
     14 C14        -0.2684    3.0532   47.9946 C.3     1  ZINC000369046711   -0.1000
     15 H15        -0.5801    3.9417   48.5436 H       1  ZINC000369046711    0.0900
     16 C16         0.0411    3.3587   46.5034 C.3     1  ZINC000369046711    0.0400
     17 N17        -0.3724    2.1735   45.7271 N.3     1  ZINC000369046711   -0.5200
     18 C18         0.7604    1.6130   44.9785 C.3     1  ZINC000369046711    0.1200
     19 C19         0.2434    0.7794   43.8345 C.2     1  ZINC000369046711    0.2900
     20 N20        -1.0010    0.4230   43.6446 N.2     1  ZINC000369046711   -0.5400
     21 C21        -1.0973   -0.3090   42.5354 C.2     1  ZINC000369046711    0.2000
     22 N22         0.0899   -0.4291   42.0018 N.2     1  ZINC000369046711   -0.3200
     23 N23         0.9794    0.2771   42.8279 N.pl3   1  ZINC000369046711   -0.3700
     24 C24         2.4239    0.4282   42.6362 C.3     1  ZINC000369046711    0.1000
     25 C25         2.7467    0.3898   41.1411 C.3     1  ZINC000369046711    0.0500
     26 F26         4.1260    0.5353   40.9580 F       1  ZINC000369046711   -0.2000
     27 C27        -0.9396    1.1719   46.6612 C.3     1  ZINC000369046711    0.0500
     28 C28        -1.3891    2.0062   47.8741 C.3     1  ZINC000369046711   -0.1000
     29 H29        -2.3251    2.5109   47.6350 H       1  ZINC000369046711    0.0900
     30 H30        -5.7286    4.3422   49.9738 H       1  ZINC000369046711    0.0900
     31 H31        -5.7980    2.6645   49.3833 H       1  ZINC000369046711    0.0600
     32 H32        -7.1605    3.3393   50.3086 H       1  ZINC000369046711    0.0700
     33 H33        -6.9077    3.7940   52.7523 H       1  ZINC000369046711    0.0700
     34 H34        -5.3651    3.4431   53.5680 H       1  ZINC000369046711    0.0600
     35 H35        -5.4758    4.7969   52.4176 H       1  ZINC000369046711    0.0900
     36 H36        -5.6425    0.7643   50.9979 H       1  ZINC000369046711    0.0700
     37 H37        -5.4624    1.0883   52.7390 H       1  ZINC000369046711    0.0700
     38 H38        -7.0051    1.4392   51.9233 H       1  ZINC000369046711    0.0800
     39 H39        -1.5561    2.5659   50.7227 H       1  ZINC000369046711    0.4000
     40 H40        -0.4542   -0.0026   50.5192 H       1  ZINC000369046711    0.0700
     41 H41         0.1350   -0.0857   48.8383 H       1  ZINC000369046711    0.0800
     42 H42         0.2534    2.4103   50.6008 H       1  ZINC000369046711    0.0600
     43 H43         1.6252    1.3097   50.3102 H       1  ZINC000369046711    0.0700
     44 H44         1.7335    3.2170   48.7626 H       1  ZINC000369046711    0.0700
     45 H45         1.4116    1.7169   47.8679 H       1  ZINC000369046711    0.0600
     46 H46        -0.5231    4.2325   46.1776 H       1  ZINC000369046711    0.0800
     47 H47         1.1089    3.5350   46.3734 H       1  ZINC000369046711    0.0800
     48 H48         1.3750    2.4243   44.5882 H       1  ZINC000369046711    0.0800
     49 H49         1.3604    0.9890   45.6407 H       1  ZINC000369046711    0.1000
     50 H50        -2.0083   -0.7347   42.1414 H       1  ZINC000369046711    0.2200
     51 H51         2.7480    1.3815   43.0536 H       1  ZINC000369046711    0.1200
     52 H52         2.9445   -0.3854   43.1413 H       1  ZINC000369046711    0.1100
     53 H53         2.4234   -0.5639   40.7240 H       1  ZINC000369046711    0.0900
     54 H54         2.2254    1.2028   40.6359 H       1  ZINC000369046711    0.0800
     55 H55        -1.7916    0.6658   46.2073 H       1  ZINC000369046711    0.0900
     56 H56        -0.1779    0.4502   46.9560 H       1  ZINC000369046711    0.0600
@<TRIPOS>BOND
     1     1     2    1
     2     1    30    1
     3     1    31    1
     4     1    32    1
     5     2     3    1
     6     2     4    1
     7     2     5    1
     8     3    33    1
     9     3    34    1
    10     3    35    1
    11     4    36    1
    12     4    37    1
    13     4    38    1
    14     5     6    1
    15     6     7    2
    16     6     8   am
    17     8     9    1
    18     8    39    1
    19     9    10    1
    20     9    28    1
    21     9    11    1
    22    11    12    1
    23    11    40    1
    24    11    41    1
    25    12    13    1
    26    12    42    1
    27    12    43    1
    28    13    14    1
    29    13    44    1
    30    13    45    1
    31    14    15    1
    32    14    28    1
    33    14    16    1
    34    16    17    1
    35    16    46    1
    36    16    47    1
    37    17    18    1
    38    17    27    1
    39    18    19    1
    40    18    48    1
    41    18    49    1
    42    19    23    1
    43    19    20    2
    44    20    21    1
    45    21    22    2
    46    21    50    1
    47    22    23    1
    48    23    24    1
    49    24    25    1
    50    24    51    1
    51    24    52    1
    52    25    26    1
    53    25    53    1
    54    25    54    1
    55    27    28    1
    56    27    55    1
    57    27    56    1
    58    28    29    1
@<TRIPOS>SUBSTRUCTURE
     1 ZINC000369046711        1 TEMP              0 ****  ****    0 ROOT


##########                                Name:    ZINC001083519372
##########                DOCK_Rotatable_Bonds:                   7
##########                         Heavy_Atoms:                  27
##########                    Molecular_Weight:             370.411
##########                DOCK_Rotatable_Bonds:                   7
##########                       Formal_Charge:           0.0399996
##########                     HBond_Acceptors:                   9
##########                        HBond_Donors:                   2
##########                         Heavy_Atoms:                  27
##########                          Grid_Score:          -34.778553
##########                     Grid_vdw_energy:          -34.501095
##########                      Grid_es_energy:           -0.277458
##########           Internal_energy_repulsive:            6.910989

@<TRIPOS>MOLECULE
ZINC001083519372
 49 52 1 0 0
SMALL
USER_CHARGES


@<TRIPOS>ATOM
      1 C1         -8.0684    4.4633   52.1848 C.3     1  ZINC001083519372   -0.1500
      2 C2         -6.5719    4.1623   52.0821 C.3     1  ZINC001083519372   -0.0100
      3 C3         -5.9494    4.1882   53.4795 C.3     1  ZINC001083519372   -0.1500
      4 C4         -6.3745    2.7996   51.4695 C.2     1  ZINC001083519372   -0.0100
      5 C5         -5.3374    2.4086   50.7105 C.2     1  ZINC001083519372   -0.0100
      6 C6         -4.1553    3.2558   50.3154 C.3     1  ZINC001083519372    0.1300
      7 N7         -2.9639    2.4057   50.1898 N.3     1  ZINC001083519372   -0.5000
      8 C8         -2.8568    1.8381   48.8214 C.3     1  ZINC001083519372    0.0300
      9 C9         -1.3611    1.4482   48.7155 C.3     1  ZINC001083519372    0.1500
     10 H10        -1.1769    0.4899   49.2012 H       1  ZINC001083519372    0.1200
     11 N11        -0.9339    1.4078   47.3147 N.am    1  ZINC001083519372   -0.6900
     12 C12        -1.0648    0.2711   46.6027 C.2     1  ZINC001083519372    0.5600
     13 O13        -1.5390   -0.7207   47.1224 O.2     1  ZINC001083519372   -0.5100
     14 C14        -0.6331    0.2299   45.1929 C.2     1  ZINC001083519372    0.1400
     15 C15        -1.5150   -0.1123   44.2034 C.2     1  ZINC001083519372   -0.1500
     16 C16        -1.0743   -0.1424   42.8736 C.2     1  ZINC001083519372    0.1800
     17 N17         0.1686    0.1536   42.5780 N.2     1  ZINC001083519372   -0.4400
     18 C18         1.0451    0.4902   43.5299 C.2     1  ZINC001083519372    0.2500
     19 C19         2.3903    0.8405   43.4883 C.2     1  ZINC001083519372   -0.2500
     20 C20         2.7997    1.0915   44.7874 C.2     1  ZINC001083519372    0.1000
     21 N21         1.7813    0.9123   45.6003 N.2     1  ZINC001083519372   -0.3100
     22 N22         0.6625    0.5402   44.8474 N.pl3   1  ZINC001083519372   -0.3100
     23 C23        -0.6509    2.5920   49.4753 C.3     1  ZINC001083519372    0.0900
     24 H24         0.1764    2.1977   50.0654 H       1  ZINC001083519372    0.0800
     25 O25        -0.1776    3.5789   48.5565 O.3     1  ZINC001083519372   -0.5600
     26 C26        -1.7280    3.1911   50.3984 C.3     1  ZINC001083519372    0.0100
     27 N27        -5.5441    1.1250   50.3671 N.2     1  ZINC001083519372   -0.4800
     28 C28        -6.6684    0.7281   50.8916 C.2     1  ZINC001083519372    0.1700
     29 O29        -7.2022    1.7426   51.5849 O.3     1  ZINC001083519372   -0.2000
     30 H30        -8.5120    4.4447   51.1894 H       1  ZINC001083519372    0.0600
     31 H31        -8.5484    3.7106   52.8105 H       1  ZINC001083519372    0.0600
     32 H32        -8.2113    5.4488   52.6279 H       1  ZINC001083519372    0.0700
     33 H33        -6.0920    4.9148   51.4566 H       1  ZINC001083519372    0.1000
     34 H34        -6.4292    3.4356   54.1051 H       1  ZINC001083519372    0.0600
     35 H35        -4.8832    3.9738   53.4063 H       1  ZINC001083519372    0.0600
     36 H36        -6.0922    5.1739   53.9227 H       1  ZINC001083519372    0.0700
     37 H37        -4.3585    3.7401   49.3602 H       1  ZINC001083519372    0.0900
     38 H38        -3.9814    4.0149   51.0780 H       1  ZINC001083519372    0.0600
     39 H39        -3.4920    0.9582   48.7192 H       1  ZINC001083519372    0.1000
     40 H40        -3.1129    2.5878   48.0729 H       1  ZINC001083519372    0.0600
     41 H41        -0.5567    2.1994   46.8997 H       1  ZINC001083519372    0.4300
     42 H42        -2.5388   -0.3568   44.4451 H       1  ZINC001083519372    0.1800
     43 H43        -1.7631   -0.4117   42.0864 H       1  ZINC001083519372    0.1900
     44 H44         3.0051    0.9049   42.6026 H       1  ZINC001083519372    0.1700
     45 H45         3.7950    1.3867   45.0850 H       1  ZINC001083519372    0.2000
     46 H46         0.2651    4.3283   48.9778 H       1  ZINC001083519372    0.3900
     47 H47        -1.9027    4.2347   50.1368 H       1  ZINC001083519372    0.0700
     48 H48        -1.4104    3.1143   51.4383 H       1  ZINC001083519372    0.0900
     49 H49        -7.0974   -0.2576   50.7881 H       1  ZINC001083519372    0.2500
@<TRIPOS>BOND
     1     1     2    1
     2     1    30    1
     3     1    31    1
     4     1    32    1
     5     2     3    1
     6     2     4    1
     7     2    33    1
     8     3    34    1
     9     3    35    1
    10     3    36    1
    11     4    29    1
    12     4     5    2
    13     5     6    1
    14     5    27    1
    15     6     7    1
    16     6    37    1
    17     6    38    1
    18     7    26    1
    19     7     8    1
    20     8     9    1
    21     8    39    1
    22     8    40    1
    23     9    10    1
    24     9    11    1
    25     9    23    1
    26    11    12   am
    27    11    41    1
    28    12    13    2
    29    12    14    1
    30    14    22    1
    31    14    15    2
    32    15    16    1
    33    15    42    1
    34    16    17    2
    35    16    43    1
    36    17    18    1
    37    18    22    1
    38    18    19    2
    39    19    20    1
    40    19    44    1
    41    20    21    2
    42    20    45    1
    43    21    22    1
    44    23    24    1
    45    23    25    1
    46    23    26    1
    47    25    46    1
    48    26    47    1
    49    26    48    1
    50    27    28    2
    51    28    29    1
    52    28    49    1
@<TRIPOS>SUBSTRUCTURE
     1 ZINC001083519372        1 TEMP              0 ****  ****    0 ROOT


##########                                Name:    ZINC000807524472
##########                DOCK_Rotatable_Bonds:                   9
##########                         Heavy_Atoms:                  28
##########                    Molecular_Weight:             410.534
##########                DOCK_Rotatable_Bonds:                   9
##########                       Formal_Charge:           0.0200006
##########                     HBond_Acceptors:                   8
##########                        HBond_Donors:                   0
##########                         Heavy_Atoms:                  28
##########                          Grid_Score:          -34.774738
##########                     Grid_vdw_energy:          -35.869080
##########                      Grid_es_energy:            1.094342
##########           Internal_energy_repulsive:           11.334023

@<TRIPOS>MOLECULE
ZINC000807524472
 58 60 1 0 0
SMALL
USER_CHARGES


@<TRIPOS>ATOM
      1 C1         -0.9102    2.9088   58.0286 C.3     1  ZINC000807524472   -0.1500
      2 C2         -2.1129    3.7702   57.6379 C.3     1  ZINC000807524472    0.0600
      3 O3         -1.9537    4.2289   56.2940 O.3     1  ZINC000807524472   -0.3800
      4 C4         -3.0285    5.0473   55.8279 C.3     1  ZINC000807524472    0.0600
      5 C5         -2.7528    5.4791   54.3863 C.3     1  ZINC000807524472    0.0700
      6 O6         -2.6388    4.3032   53.5423 O.3     1  ZINC000807524472   -0.3500
      7 C7         -2.3880    4.5106   52.2345 C.2     1  ZINC000807524472    0.5000
      8 O8         -2.1102    5.6255   51.8386 O.2     1  ZINC000807524472   -0.4600
      9 C9         -2.4505    3.3862   51.2851 C.ar    1  ZINC000807524472   -0.1200
     10 C10        -1.2770    2.8677   50.7308 C.ar    1  ZINC000807524472    0.0400
     11 C11        -1.3425    1.8155   49.8439 C.ar    1  ZINC000807524472   -0.7000
     12 S12         0.1387    1.1635   49.1471 S.o2    1  ZINC000807524472    2.6900
     13 O13         1.1759    2.0740   49.4853 O.2     1  ZINC000807524472   -0.9500
     14 O14         0.1714   -0.2147   49.4916 O.2     1  ZINC000807524472   -0.9500
     15 N15        -0.0235    1.2301   47.5004 N.am    1  ZINC000807524472   -0.9900
     16 C16         0.0326    0.0043   46.6925 C.3     1  ZINC000807524472    0.1200
     17 C17        -1.2218   -0.0664   45.8158 C.3     1  ZINC000807524472   -0.1400
     18 C18        -1.3402    1.2212   44.9971 C.3     1  ZINC000807524472   -0.1200
     19 C19        -1.4777    2.4174   45.9416 C.3     1  ZINC000807524472   -0.1400
     20 C20        -0.2323    2.5156   46.8202 C.3     1  ZINC000807524472    0.1200
     21 C21        -2.5670    1.2670   49.4970 C.ar    1  ZINC000807524472    0.0200
     22 C22        -3.7349    1.7676   50.0351 C.ar    1  ZINC000807524472   -0.1800
     23 C23        -3.6894    2.8244   50.9356 C.ar    1  ZINC000807524472    0.2000
     24 N24        -4.8629    3.3297   51.4787 N.3     1  ZINC000807524472   -0.4800
     25 C25        -5.7939    3.7771   50.4114 C.3     1  ZINC000807524472    0.0400
     26 C26        -7.1692    3.7944   51.1247 C.3     1  ZINC000807524472   -0.1200
     27 C27        -7.0931    2.5598   52.0521 C.3     1  ZINC000807524472   -0.1300
     28 C28        -5.5887    2.2868   52.2357 C.3     1  ZINC000807524472    0.0400
     29 H29         0.0013    3.5017   57.9526 H       1  ZINC000807524472    0.0600
     30 H30        -1.0317    2.5589   59.0537 H       1  ZINC000807524472    0.0700
     31 H31        -0.8435    2.0523   57.3578 H       1  ZINC000807524472    0.0700
     32 H32        -3.0244    3.1773   57.7138 H       1  ZINC000807524472    0.0500
     33 H33        -2.1796    4.6268   58.3087 H       1  ZINC000807524472    0.0500
     34 H34        -3.9591    4.4811   55.8660 H       1  ZINC000807524472    0.0600
     35 H35        -3.1141    5.9301   56.4616 H       1  ZINC000807524472    0.0700
     36 H36        -3.5726    6.1033   54.0309 H       1  ZINC000807524472    0.0900
     37 H37        -1.8221    6.0452   54.3482 H       1  ZINC000807524472    0.0800
     38 H38        -0.3201    3.2915   50.9972 H       1  ZINC000807524472    0.1600
     39 H39         0.9200    0.0240   46.0598 H       1  ZINC000807524472    0.0800
     40 H40         0.0688   -0.8649   47.3493 H       1  ZINC000807524472    0.0900
     41 H41        -1.1473   -0.9202   45.1424 H       1  ZINC000807524472    0.0800
     42 H42        -2.1022   -0.1772   46.4489 H       1  ZINC000807524472    0.0700
     43 H43        -0.4482    1.3442   44.3828 H       1  ZINC000807524472    0.0700
     44 H44        -2.2185    1.1632   44.3542 H       1  ZINC000807524472    0.0700
     45 H45        -1.5854    3.3315   45.3576 H       1  ZINC000807524472    0.0800
     46 H46        -2.3557    2.2832   46.5734 H       1  ZINC000807524472    0.0700
     47 H47        -0.3684    3.3043   47.5601 H       1  ZINC000807524472    0.0900
     48 H48         0.6357    2.7394   46.2001 H       1  ZINC000807524472    0.0800
     49 H49        -2.6075    0.4424   48.8007 H       1  ZINC000807524472    0.1500
     50 H50        -4.6850    1.3346   49.7591 H       1  ZINC000807524472    0.1400
     51 H51        -5.5287    4.7753   50.0630 H       1  ZINC000807524472    0.0900
     52 H52        -5.7990    3.0683   49.5833 H       1  ZINC000807524472    0.0500
     53 H53        -7.2899    4.7076   51.7075 H       1  ZINC000807524472    0.0800
     54 H54        -7.9792    3.6858   50.4036 H       1  ZINC000807524472    0.0800
     55 H55        -7.5577    2.7794   53.0134 H       1  ZINC000807524472    0.0800
     56 H56        -7.5785    1.7040   51.5831 H       1  ZINC000807524472    0.0700
     57 H57        -5.3395    1.3012   51.8423 H       1  ZINC000807524472    0.0500
     58 H58        -5.3270    2.3449   53.2922 H       1  ZINC000807524472    0.0900
@<TRIPOS>BOND
     1     1     2    1
     2     1    29    1
     3     1    30    1
     4     1    31    1
     5     2     3    1
     6     2    32    1
     7     2    33    1
     8     3     4    1
     9     4     5    1
    10     4    34    1
    11     4    35    1
    12     5     6    1
    13     5    36    1
    14     5    37    1
    15     6     7    1
    16     7     8    2
    17     7     9    1
    18     9    23   ar
    19     9    10   ar
    20    10    11   ar
    21    10    38    1
    22    11    12    1
    23    11    21   ar
    24    12    13    2
    25    12    14    2
    26    12    15   am
    27    15    20    1
    28    15    16    1
    29    16    17    1
    30    16    39    1
    31    16    40    1
    32    17    18    1
    33    17    41    1
    34    17    42    1
    35    18    19    1
    36    18    43    1
    37    18    44    1
    38    19    20    1
    39    19    45    1
    40    19    46    1
    41    20    47    1
    42    20    48    1
    43    21    22   ar
    44    21    49    1
    45    22    23   ar
    46    22    50    1
    47    23    24    1
    48    24    28    1
    49    24    25    1
    50    25    26    1
    51    25    51    1
    52    25    52    1
    53    26    27    1
    54    26    53    1
    55    26    54    1
    56    27    28    1
    57    27    55    1
    58    27    56    1
    59    28    57    1
    60    28    58    1
@<TRIPOS>SUBSTRUCTURE
     1 ZINC000807524472        1 TEMP              0 ****  ****    0 ROOT


##########                                Name:    ZINC001574157642
##########                DOCK_Rotatable_Bonds:                   9
##########                         Heavy_Atoms:                  28
##########                    Molecular_Weight:             387.445
##########                DOCK_Rotatable_Bonds:                   9
##########                       Formal_Charge:          -0.0400004
##########                     HBond_Acceptors:                  11
##########                        HBond_Donors:                   4
##########                         Heavy_Atoms:                  28
##########                          Grid_Score:          -34.772850
##########                     Grid_vdw_energy:          -34.992496
##########                      Grid_es_energy:            0.219648
##########           Internal_energy_repulsive:            8.379396

@<TRIPOS>MOLECULE
ZINC001574157642
 53 55 1 0 0
SMALL
USER_CHARGES


@<TRIPOS>ATOM
      1 C1          2.6102    1.5720   51.4103 C.3     1  ZINC001574157642   -0.1400
      2 C2          1.8902    2.2314   50.2322 C.3     1  ZINC001574157642   -0.0900
      3 C3          2.9219    2.8330   49.2760 C.3     1  ZINC001574157642   -0.1500
      4 C4          1.0584    1.1827   49.4911 C.3     1  ZINC001574157642   -0.1300
      5 C5         -0.1247    1.8646   48.8009 C.3     1  ZINC001574157642    0.1300
      6 H6          0.0545    2.9385   48.7494 H       1  ZINC001574157642    0.1100
      7 C7         -1.4029    1.5985   49.5986 C.3     1  ZINC001574157642    0.1100
      8 N8         -2.2432    2.7985   49.5890 N.pl3   1  ZINC001574157642   -0.7100
      9 C9         -3.5177    2.7586   50.1407 C.ar    1  ZINC001574157642    0.3700
     10 C10        -4.0825    3.9159   50.6738 C.ar    1  ZINC001574157642    0.0000
     11 N11        -5.2915    3.8788   51.1978 N.ar    1  ZINC001574157642   -0.3700
     12 C12        -5.9729    2.7366   51.2174 C.ar    1  ZINC001574157642    0.0800
     13 C13        -7.3342    2.6945   51.8067 C.2     1  ZINC001574157642    0.2300
     14 N14        -8.0108    3.7131   52.2996 N.2     1  ZINC001574157642   -0.2700
     15 N15        -9.1477    3.2684   52.7124 N.pl3   1  ZINC001574157642   -0.2300
     16 N16        -9.2129    2.0008   52.4971 N.2     1  ZINC001574157642   -0.0400
     17 N17        -8.1176    1.6142   51.9364 N.2     1  ZINC001574157642   -0.2600
     18 C18        -5.4085    1.5802   50.6841 C.ar    1  ZINC001574157642    0.1600
     19 N19        -4.1992    1.6195   50.1549 N.ar    1  ZINC001574157642   -0.5000
     20 N20        -0.2744    1.3289   47.4457 N.am    1  ZINC001574157642   -0.7300
     21 C21        -0.3918    2.1688   46.3982 C.2     1  ZINC001574157642    0.5200
     22 O22        -0.3750    3.3682   46.5777 O.2     1  ZINC001574157642   -0.5100
     23 C23        -0.5440    1.6178   45.0038 C.3     1  ZINC001574157642   -0.1300
     24 H24        -1.1577    2.2938   44.4084 H       1  ZINC001574157642    0.1100
     25 C25        -1.2101    0.2380   45.0658 C.3     1  ZINC001574157642   -0.1000
     26 C26        -1.5175   -0.2154   43.6364 C.3     1  ZINC001574157642   -0.1400
     27 C27        -0.3014   -0.0420   42.7727 C.2     1  ZINC001574157642    0.5200
     28 O28        -0.2571   -0.6383   41.7174 O.2     1  ZINC001574157642   -0.5500
     29 N29         0.7323    0.7328   43.1035 N.am    1  ZINC001574157642   -0.7200
     30 C30         0.8338    1.4715   44.3567 C.3     1  ZINC001574157642    0.1200
     31 H31         3.2656    0.7836   51.0402 H       1  ZINC001574157642    0.0400
     32 H32         3.2026    2.3191   51.9382 H       1  ZINC001574157642    0.0500
     33 H33         1.8751    1.1435   52.0916 H       1  ZINC001574157642    0.0700
     34 H34         1.2347    3.0198   50.6023 H       1  ZINC001574157642    0.0700
     35 H35         3.5773    2.0445   48.9059 H       1  ZINC001574157642    0.0500
     36 H36         2.4090    3.3028   48.4367 H       1  ZINC001574157642    0.0500
     37 H37         3.5144    3.5800   49.8040 H       1  ZINC001574157642    0.0500
     38 H38         1.6792    0.6883   48.7439 H       1  ZINC001574157642    0.0700
     39 H39         0.6879    0.4441   50.2019 H       1  ZINC001574157642    0.0800
     40 H40        -1.9476    0.7698   49.1461 H       1  ZINC001574157642    0.0800
     41 H41        -1.1435    1.3447   50.6264 H       1  ZINC001574157642    0.0900
     42 H42        -1.9097    3.6210   49.1976 H       1  ZINC001574157642    0.4100
     43 H43        -3.5293    4.8434   50.6579 H       1  ZINC001574157642    0.1700
     44 H44        -9.8448    3.8046   53.1217 H       1  ZINC001574157642    0.4800
     45 H45        -5.9612    0.6525   50.7001 H       1  ZINC001574157642    0.1800
     46 H46        -0.2890    0.3697   47.3022 H       1  ZINC001574157642    0.4000
     47 H47        -0.5349   -0.4745   45.5396 H       1  ZINC001574157642    0.0800
     48 H48        -2.1360    0.3029   45.6373 H       1  ZINC001574157642    0.0900
     49 H49        -1.8092   -1.2657   43.6445 H       1  ZINC001574157642    0.1100
     50 H50        -2.3352    0.3831   43.2347 H       1  ZINC001574157642    0.1000
     51 H51         1.4622    0.8122   42.4697 H       1  ZINC001574157642    0.4000
     52 H52         1.2512    2.4590   44.1600 H       1  ZINC001574157642    0.0800
     53 H53         1.4929    0.9346   45.0389 H       1  ZINC001574157642    0.0700
@<TRIPOS>BOND
     1     1     2    1
     2     1    31    1
     3     1    32    1
     4     1    33    1
     5     2     3    1
     6     2     4    1
     7     2    34    1
     8     3    35    1
     9     3    36    1
    10     3    37    1
    11     4     5    1
    12     4    38    1
    13     4    39    1
    14     5     6    1
    15     5     7    1
    16     5    20    1
    17     7     8    1
    18     7    40    1
    19     7    41    1
    20     8     9    1
    21     8    42    1
    22     9    19   ar
    23     9    10   ar
    24    10    11   ar
    25    10    43    1
    26    11    12   ar
    27    12    13    1
    28    12    18   ar
    29    13    17    1
    30    13    14    2
    31    14    15    1
    32    15    16    1
    33    15    44    1
    34    16    17    2
    35    18    19   ar
    36    18    45    1
    37    20    21   am
    38    20    46    1
    39    21    22    2
    40    21    23    1
    41    23    24    1
    42    23    30    1
    43    23    25    1
    44    25    26    1
    45    25    47    1
    46    25    48    1
    47    26    27    1
    48    26    49    1
    49    26    50    1
    50    27    28    2
    51    27    29   am
    52    29    30    1
    53    29    51    1
    54    30    52    1
    55    30    53    1
@<TRIPOS>SUBSTRUCTURE
     1 ZINC001574157642        1 TEMP              0 ****  ****    0 ROOT


##########                                Name:    ZINC000076573199
##########                DOCK_Rotatable_Bonds:                  10
##########                         Heavy_Atoms:                  24
##########                    Molecular_Weight:             333.431
##########                DOCK_Rotatable_Bonds:                  10
##########                       Formal_Charge:          -0.0200009
##########                     HBond_Acceptors:                   6
##########                        HBond_Donors:                   3
##########                         Heavy_Atoms:                  24
##########                          Grid_Score:          -34.737728
##########                     Grid_vdw_energy:          -33.126930
##########                      Grid_es_energy:           -1.610798
##########           Internal_energy_repulsive:           20.101606

@<TRIPOS>MOLECULE
ZINC000076573199
 51 51 1 0 0
SMALL
USER_CHARGES


@<TRIPOS>ATOM
      1 C1         -7.0941   -0.3663   51.7233 C.3     1  ZINC000076573199   -0.1500
      2 C2         -8.1513    0.1760   52.6874 C.3     1  ZINC000076573199   -0.1200
      3 C3         -7.6462    1.4742   53.3203 C.3     1  ZINC000076573199   -0.1000
      4 H4         -6.5564    1.4722   53.3331 H       1  ZINC000076573199    0.0700
      5 C5         -8.1731    1.5820   54.7526 C.3     1  ZINC000076573199   -0.1500
      6 C6         -8.1444    2.6676   52.5025 C.3     1  ZINC000076573199   -0.1200
      7 C7         -6.9561    3.5466   52.1074 C.3     1  ZINC000076573199    0.1400
      8 H8         -7.2822    4.2953   51.3855 H       1  ZINC000076573199    0.1000
      9 C9         -6.4022    4.2446   53.3512 C.3     1  ZINC000076573199   -0.1700
     10 N10        -5.9104    2.7137   51.5084 N.am    1  ZINC000076573199   -0.6900
     11 C11        -5.1116    3.2213   50.5487 C.2     1  ZINC000076573199    0.5100
     12 O12        -5.2598    4.3679   50.1797 O.2     1  ZINC000076573199   -0.5100
     13 C13        -4.0443    2.3727   49.9393 C.2     1  ZINC000076573199    0.5100
     14 O14        -4.0682    1.1682   50.0875 O.2     1  ZINC000076573199   -0.5000
     15 N15        -3.0547    2.9443   49.2250 N.am    1  ZINC000076573199   -0.6400
     16 C16        -2.0562    2.1504   48.6550 C.ar    1  ZINC000076573199    0.1500
     17 C17        -1.0982    1.5504   49.4633 C.ar    1  ZINC000076573199   -0.1300
     18 C18        -0.1110    0.7649   48.9000 C.ar    1  ZINC000076573199   -0.0800
     19 C19        -0.0726    0.5732   47.5324 C.ar    1  ZINC000076573199   -0.1200
     20 C20         1.0058   -0.2847   46.9226 C.3     1  ZINC000076573199   -0.1100
     21 C21        -1.0276    1.1703   46.7185 C.ar    1  ZINC000076573199    0.1600
     22 N22        -0.9878    0.9755   45.3335 N.am    1  ZINC000076573199   -0.6700
     23 C23        -1.4068   -0.1913   44.8048 C.2     1  ZINC000076573199    0.5100
     24 C24        -1.3640   -0.4013   43.3131 C.3     1  ZINC000076573199   -0.1700
     25 O25        -1.8182   -1.0724   45.5296 O.2     1  ZINC000076573199   -0.5200
     26 C26        -2.0233    1.9553   47.2809 C.ar    1  ZINC000076573199   -0.1400
     27 H27        -6.1714   -0.5631   52.2693 H       1  ZINC000076573199    0.0600
     28 H28        -7.4538   -1.2911   51.2725 H       1  ZINC000076573199    0.0500
     29 H29        -6.9039    0.3690   50.9416 H       1  ZINC000076573199    0.0500
     30 H30        -9.0739    0.3728   52.1415 H       1  ZINC000076573199    0.0600
     31 H31        -8.3414   -0.5594   53.4691 H       1  ZINC000076573199    0.0600
     32 H32        -9.2596    1.6676   54.7346 H       1  ZINC000076573199    0.0600
     33 H33        -7.8881    0.6912   55.3125 H       1  ZINC000076573199    0.0600
     34 H34        -7.7470    2.4637   55.2311 H       1  ZINC000076573199    0.0500
     35 H35        -8.6453    2.3083   51.6036 H       1  ZINC000076573199    0.0800
     36 H36        -8.8448    3.2507   53.1004 H       1  ZINC000076573199    0.0700
     37 H37        -5.5557    4.8709   53.0697 H       1  ZINC000076573199    0.0600
     38 H38        -7.1803    4.8644   53.7968 H       1  ZINC000076573199    0.0700
     39 H39        -6.0761    3.4959   54.0731 H       1  ZINC000076573199    0.0600
     40 H40        -5.7927    1.7968   51.8025 H       1  ZINC000076573199    0.4100
     41 H41        -3.0357    3.9069   49.1066 H       1  ZINC000076573199    0.4200
     42 H42        -1.1252    1.6987   50.5327 H       1  ZINC000076573199    0.1400
     43 H43         0.6327    0.3001   49.5303 H       1  ZINC000076573199    0.1300
     44 H44         0.6638   -1.3186   46.8747 H       1  ZINC000076573199    0.0700
     45 H45         1.2281    0.0714   45.9168 H       1  ZINC000076573199    0.0600
     46 H46         1.9054   -0.2276   47.5355 H       1  ZINC000076573199    0.0700
     47 H47        -0.6587    1.6802   44.7538 H       1  ZINC000076573199    0.4100
     48 H48        -0.3362   -0.3071   42.9623 H       1  ZINC000076573199    0.0900
     49 H49        -1.7394   -1.3965   43.0752 H       1  ZINC000076573199    0.1000
     50 H50        -1.9853    0.3482   42.8228 H       1  ZINC000076573199    0.0900
     51 H51        -2.7667    2.4204   46.6503 H       1  ZINC000076573199    0.1400
@<TRIPOS>BOND
     1     1     2    1
     2     1    27    1
     3     1    28    1
     4     1    29    1
     5     2     3    1
     6     2    30    1
     7     2    31    1
     8     3     4    1
     9     3     5    1
    10     3     6    1
    11     5    32    1
    12     5    33    1
    13     5    34    1
    14     6     7    1
    15     6    35    1
    16     6    36    1
    17     7     8    1
    18     7     9    1
    19     7    10    1
    20     9    37    1
    21     9    38    1
    22     9    39    1
    23    10    11   am
    24    10    40    1
    25    11    12    2
    26    11    13    1
    27    13    14    2
    28    13    15   am
    29    15    16    1
    30    15    41    1
    31    16    26   ar
    32    16    17   ar
    33    17    18   ar
    34    17    42    1
    35    18    19   ar
    36    18    43    1
    37    19    20    1
    38    19    21   ar
    39    20    44    1
    40    20    45    1
    41    20    46    1
    42    21    22    1
    43    21    26   ar
    44    22    23   am
    45    22    47    1
    46    23    24    1
    47    23    25    2
    48    24    48    1
    49    24    49    1
    50    24    50    1
    51    26    51    1
@<TRIPOS>SUBSTRUCTURE
     1 ZINC000076573199        1 TEMP              0 ****  ****    0 ROOT


##########                                Name:    ZINC001207290212
##########                DOCK_Rotatable_Bonds:                   8
##########                         Heavy_Atoms:                  23
##########                    Molecular_Weight:             344.435
##########                DOCK_Rotatable_Bonds:                   8
##########                       Formal_Charge:               -0.03
##########                     HBond_Acceptors:                   9
##########                        HBond_Donors:                   2
##########                         Heavy_Atoms:                  23
##########                          Grid_Score:          -34.731976
##########                     Grid_vdw_energy:          -33.810349
##########                      Grid_es_energy:           -0.921628
##########           Internal_energy_repulsive:            8.218896

@<TRIPOS>MOLECULE
ZINC001207290212
 47 48 1 0 0
SMALL
USER_CHARGES


@<TRIPOS>ATOM
      1 C1         -8.8013    5.3262   50.6450 C.3     1  ZINC001207290212   -0.1500
      2 C2         -8.2175    4.0462   50.0434 C.3     1  ZINC001207290212   -0.6300
      3 S3         -6.6755    3.6240   50.9004 S.o2    1  ZINC001207290212    2.6100
      4 O4         -5.6644    4.5784   50.6069 O.2     1  ZINC001207290212   -0.9500
      5 O5         -6.9413    3.2265   52.2386 O.2     1  ZINC001207290212   -0.9500
      6 N6         -6.1564    2.2378   50.1581 N.am    1  ZINC001207290212   -1.1100
      7 C7         -4.9155    1.5933   50.5953 C.3     1  ZINC001207290212    0.0900
      8 C8         -3.7747    2.0593   49.7277 C.2     1  ZINC001207290212    0.5100
      9 O9         -3.7623    3.1943   49.3002 O.2     1  ZINC001207290212   -0.5300
     10 N10        -2.7684    1.2149   49.4268 N.am    1  ZINC001207290212   -0.7200
     11 C11        -1.6586    1.6684   48.5849 C.3     1  ZINC001207290212    0.1400
     12 H12        -1.2508    2.6035   48.9689 H       1  ZINC001207290212    0.1000
     13 C13        -2.1302    1.8485   47.1301 C.3     1  ZINC001207290212    0.0200
     14 N14        -1.3571    0.8973   46.3024 N.3     1  ZINC001207290212   -0.5100
     15 C15        -1.0856    1.4573   44.9718 C.3     1  ZINC001207290212    0.1300
     16 C16        -1.1109    0.3526   43.9472 C.2     1  ZINC001207290212    0.0000
     17 C17        -1.7063   -0.8436   44.0856 C.2     1  ZINC001207290212   -0.0700
     18 O18        -1.4917   -1.5278   42.9448 O.3     1  ZINC001207290212   -0.2000
     19 C19        -0.7723   -0.7460   42.1287 C.2     1  ZINC001207290212    0.1900
     20 C20        -0.3071   -1.1158   40.7438 C.3     1  ZINC001207290212   -0.0600
     21 N21        -0.5465    0.3887   42.7271 N.2     1  ZINC001207290212   -0.4700
     22 C22        -0.0940    0.6493   47.0436 C.3     1  ZINC001207290212    0.0400
     23 C23        -0.5553    0.5872   48.5231 C.3     1  ZINC001207290212   -0.1000
     24 H24        -0.9655   -0.3949   48.7583 H       1  ZINC001207290212    0.0900
     25 C25         0.6007    0.9287   49.4654 C.3     1  ZINC001207290212   -0.1400
     26 H26        -9.0055    5.1696   51.7042 H       1  ZINC001207290212    0.0700
     27 H27        -8.0866    6.1409   50.5292 H       1  ZINC001207290212    0.0700
     28 H28        -9.7279    5.5798   50.1300 H       1  ZINC001207290212    0.0800
     29 H29        -8.9323    3.2315   50.1592 H       1  ZINC001207290212    0.1300
     30 H30        -8.0134    4.2028   48.9842 H       1  ZINC001207290212    0.1300
     31 H31        -6.6739    1.8524   49.4338 H       1  ZINC001207290212    0.4300
     32 H32        -4.7144    1.8586   51.6332 H       1  ZINC001207290212    0.1000
     33 H33        -5.0184    0.5115   50.5100 H       1  ZINC001207290212    0.1100
     34 H34        -2.7789    0.3068   49.7677 H       1  ZINC001207290212    0.4100
     35 H35        -3.1947    1.6264   47.0546 H       1  ZINC001207290212    0.0800
     36 H36        -1.9370    2.8695   46.8007 H       1  ZINC001207290212    0.0500
     37 H37        -1.8471    2.1976   44.7268 H       1  ZINC001207290212    0.0600
     38 H38        -0.1041    1.9316   44.9706 H       1  ZINC001207290212    0.1000
     39 H39        -2.2538   -1.1916   44.9491 H       1  ZINC001207290212    0.2100
     40 H40        -0.6462   -2.1235   40.5036 H       1  ZINC001207290212    0.0900
     41 H41        -0.7203   -0.4117   40.0216 H       1  ZINC001207290212    0.1000
     42 H42         0.7816   -1.0797   40.7044 H       1  ZINC001207290212    0.1000
     43 H43         0.3512   -0.2978   46.7390 H       1  ZINC001207290212    0.0900
     44 H44         0.6069    1.4706   46.8946 H       1  ZINC001207290212    0.0500
     45 H45         0.9763    1.9253   49.2334 H       1  ZINC001207290212    0.0600
     46 H46         0.2483    0.9042   50.4966 H       1  ZINC001207290212    0.0600
     47 H47         1.4011    0.1999   49.3376 H       1  ZINC001207290212    0.0600
@<TRIPOS>BOND
     1     1     2    1
     2     1    26    1
     3     1    27    1
     4     1    28    1
     5     2     3    1
     6     2    29    1
     7     2    30    1
     8     3     4    2
     9     3     5    2
    10     3     6   am
    11     6     7    1
    12     6    31    1
    13     7     8    1
    14     7    32    1
    15     7    33    1
    16     8     9    2
    17     8    10   am
    18    10    11    1
    19    10    34    1
    20    11    12    1
    21    11    23    1
    22    11    13    1
    23    13    14    1
    24    13    35    1
    25    13    36    1
    26    14    15    1
    27    14    22    1
    28    15    16    1
    29    15    37    1
    30    15    38    1
    31    16    21    1
    32    16    17    2
    33    17    18    1
    34    17    39    1
    35    18    19    1
    36    19    20    1
    37    19    21    2
    38    20    40    1
    39    20    41    1
    40    20    42    1
    41    22    23    1
    42    22    43    1
    43    22    44    1
    44    23    24    1
    45    23    25    1
    46    25    45    1
    47    25    46    1
    48    25    47    1
@<TRIPOS>SUBSTRUCTURE
     1 ZINC001207290212        1 TEMP              0 ****  ****    0 ROOT


##########                                Name:    ZINC000563265674
##########                DOCK_Rotatable_Bonds:                   7
##########                         Heavy_Atoms:                  25
##########                    Molecular_Weight:             386.859
##########                DOCK_Rotatable_Bonds:                   7
##########                       Formal_Charge:          0.00999963
##########                     HBond_Acceptors:                  10
##########                        HBond_Donors:                   2
##########                         Heavy_Atoms:                  25
##########                          Grid_Score:          -34.721111
##########                     Grid_vdw_energy:          -34.220974
##########                      Grid_es_energy:           -0.500139
##########           Internal_energy_repulsive:           13.402564

@<TRIPOS>MOLECULE
ZINC000563265674
 44 45 1 0 0
SMALL
USER_CHARGES


@<TRIPOS>ATOM
      1 C1         -0.4379   -0.8036   41.2770 C.3     1  ZINC000563265674   -0.0600
      2 C2         -0.7107   -0.0944   42.5785 C.2     1  ZINC000563265674    0.1700
      3 N3         -1.8780    0.1186   43.1082 N.2     1  ZINC000563265674   -0.3800
      4 O4         -1.7601    0.7141   44.1583 O.3     1  ZINC000563265674    0.0900
      5 C5         -0.4672    0.9446   44.4057 C.2     1  ZINC000563265674    0.1900
      6 C6          0.1042    1.6560   45.6051 C.3     1  ZINC000563265674    0.2100
      7 C7          1.5076    1.1201   45.8951 C.3     1  ZINC000563265674   -0.1400
      8 C8          0.1804    3.1570   45.3193 C.3     1  ZINC000563265674   -0.1800
      9 N9         -0.7595    1.4226   46.7702 N.3     1  ZINC000563265674   -0.6600
     10 C10        -0.0472    1.7170   48.0209 C.3     1  ZINC000563265674    0.0400
     11 C11        -1.0310    1.7576   49.1617 C.2     1  ZINC000563265674    0.5200
     12 O12        -1.2106    0.7703   49.8430 O.2     1  ZINC000563265674   -0.4900
     13 N13        -1.7115    2.8908   49.4248 N.am    1  ZINC000563265674   -0.6700
     14 C14        -2.6254    2.9285   50.4845 C.ar    1  ZINC000563265674    0.1400
     15 C15        -3.8562    2.2979   50.3643 C.ar    1  ZINC000563265674   -0.0300
     16 C16        -4.7559    2.3364   51.4119 C.ar    1  ZINC000563265674   -0.6400
     17 S17        -6.3182    1.5358   51.2599 S.o2    1  ZINC000563265674    2.5000
     18 C18        -7.5000    2.8913   51.0215 C.3     1  ZINC000563265674   -0.6500
     19 O19        -6.2014    0.7617   50.0740 O.2     1  ZINC000563265674   -0.9300
     20 O20        -6.5186    0.9159   52.5227 O.2     1  ZINC000563265674   -0.9300
     21 C21        -4.4321    3.0020   52.5797 C.ar    1  ZINC000563265674   -0.0300
     22 C22        -3.2070    3.6319   52.7034 C.ar    1  ZINC000563265674   -0.1100
     23 C23        -2.3002    3.5924   51.6614 C.ar    1  ZINC000563265674   -0.0200
     24 Cl24       -0.7624    4.3826   51.8173 Cl      1  ZINC000563265674   -0.0500
     25 N25         0.2096    0.4291   43.4079 N.2     1  ZINC000563265674   -0.4700
     26 H26        -0.3136   -1.8703   41.4636 H       1  ZINC000563265674    0.0900
     27 H27        -1.2752   -0.6489   40.5965 H       1  ZINC000563265674    0.0900
     28 H28         0.4724   -0.4044   40.8296 H       1  ZINC000563265674    0.0900
     29 H29         2.1485    1.2932   45.0306 H       1  ZINC000563265674    0.0800
     30 H30         1.9209    1.6346   46.7626 H       1  ZINC000563265674    0.0800
     31 H31         1.4533    0.0507   46.0987 H       1  ZINC000563265674    0.0700
     32 H32        -0.8194    3.5388   45.1127 H       1  ZINC000563265674    0.0700
     33 H33         0.5937    3.6716   46.1868 H       1  ZINC000563265674    0.0800
     34 H34         0.8212    3.3303   44.4547 H       1  ZINC000563265674    0.0800
     35 H35        -1.6103    1.9609   46.7033 H       1  ZINC000563265674    0.3600
     36 H36         0.6944    0.9405   48.2081 H       1  ZINC000563265674    0.1200
     37 H37         0.4512    2.6827   47.9364 H       1  ZINC000563265674    0.0800
     38 H38        -1.5679    3.6803   48.8799 H       1  ZINC000563265674    0.4200
     39 H39        -4.1104    1.7781   49.4524 H       1  ZINC000563265674    0.1700
     40 H40        -7.2384    3.4473   50.1213 H       1  ZINC000563265674    0.1300
     41 H41        -8.5051    2.4828   50.9171 H       1  ZINC000563265674    0.1400
     42 H42        -7.4666    3.5582   51.8831 H       1  ZINC000563265674    0.1400
     43 H43        -5.1375    3.0304   53.3969 H       1  ZINC000563265674    0.1500
     44 H44        -2.9572    4.1512   53.6168 H       1  ZINC000563265674    0.1500
@<TRIPOS>BOND
     1     1     2    1
     2     1    26    1
     3     1    27    1
     4     1    28    1
     5     2    25    1
     6     2     3    2
     7     3     4    1
     8     4     5    1
     9     5     6    1
    10     5    25    2
    11     6     7    1
    12     6     8    1
    13     6     9    1
    14     7    29    1
    15     7    30    1
    16     7    31    1
    17     8    32    1
    18     8    33    1
    19     8    34    1
    20     9    10    1
    21     9    35    1
    22    10    11    1
    23    10    36    1
    24    10    37    1
    25    11    12    2
    26    11    13   am
    27    13    14    1
    28    13    38    1
    29    14    23   ar
    30    14    15   ar
    31    15    16   ar
    32    15    39    1
    33    16    17    1
    34    16    21   ar
    35    17    18    1
    36    17    19    2
    37    17    20    2
    38    18    40    1
    39    18    41    1
    40    18    42    1
    41    21    22   ar
    42    21    43    1
    43    22    23   ar
    44    22    44    1
    45    23    24    1
@<TRIPOS>SUBSTRUCTURE
     1 ZINC000563265674        1 TEMP              0 ****  ****    0 ROOT


##########                                Name:    ZINC000482910431
##########                DOCK_Rotatable_Bonds:                   7
##########                         Heavy_Atoms:                  29
##########                    Molecular_Weight:             414.867
##########                DOCK_Rotatable_Bonds:                   7
##########                       Formal_Charge:          -0.0300001
##########                     HBond_Acceptors:                   8
##########                        HBond_Donors:                   2
##########                         Heavy_Atoms:                  29
##########                          Grid_Score:          -34.655437
##########                     Grid_vdw_energy:          -34.419380
##########                      Grid_es_energy:           -0.236056
##########           Internal_energy_repulsive:           15.814567

@<TRIPOS>MOLECULE
ZINC000482910431
 49 51 1 0 0
SMALL
USER_CHARGES


@<TRIPOS>ATOM
      1 C1         -8.6602    3.9665   54.3555 C.3     1  ZINC000482910431   -0.1500
      2 C2         -7.2609    3.3864   54.5699 C.3     1  ZINC000482910431    0.0800
      3 C3         -6.3885    4.4137   55.2943 C.3     1  ZINC000482910431   -0.1400
      4 C4         -7.3560    2.1631   55.3830 C.1     1  ZINC000482910431    0.2100
      5 N5         -7.4293    1.2190   56.0106 N.1     1  ZINC000482910431   -0.4300
      6 C6         -6.6442    3.0557   53.2353 C.ar    1  ZINC000482910431   -0.1000
      7 C7         -5.9151    4.0142   52.5557 C.ar    1  ZINC000482910431   -0.0900
      8 C8         -5.3483    3.7142   51.3325 C.ar    1  ZINC000482910431   -0.1200
      9 C9         -5.5110    2.4484   50.7852 C.ar    1  ZINC000482910431    0.1700
     10 N10        -4.9374    2.1410   49.5462 N.am    1  ZINC000482910431   -0.6800
     11 C11        -3.5967    2.0976   49.4165 C.2     1  ZINC000482910431    0.7100
     12 O12        -2.8854    2.3256   50.3759 O.2     1  ZINC000482910431   -0.5500
     13 N13        -3.0443    1.8016   48.2232 N.am    1  ZINC000482910431   -0.7300
     14 C14        -1.5869    1.7561   48.0818 C.3     1  ZINC000482910431    0.1400
     15 H15        -1.1254    2.5766   48.6313 H       1  ZINC000482910431    0.1400
     16 C16        -1.0374    0.3976   48.5752 C.3     1  ZINC000482910431   -0.1400
     17 C17         0.1128    0.1416   47.5762 C.3     1  ZINC000482910431    0.0900
     18 N18        -0.2464    0.8893   46.3655 N.am    1  ZINC000482910431   -0.5600
     19 C19         0.3253    0.6747   45.1061 C.ar    1  ZINC000482910431    0.2000
     20 C20        -0.4834    0.3792   44.0167 C.ar    1  ZINC000482910431   -0.1600
     21 C21         0.0820    0.1676   42.7741 C.ar    1  ZINC000482910431   -0.0500
     22 C22         1.4533    0.2496   42.6134 C.ar    1  ZINC000482910431   -0.1000
     23 Cl23        2.1603   -0.0170   41.0504 Cl      1  ZINC000482910431   -0.0500
     24 C24         2.2639    0.5448   43.6985 C.ar    1  ZINC000482910431    0.1400
     25 F25         3.6031    0.6250   43.5392 F       1  ZINC000482910431   -0.1200
     26 C26         1.7015    0.7626   44.9431 C.ar    1  ZINC000482910431   -0.1900
     27 C27        -1.1948    1.8102   46.6216 C.2     1  ZINC000482910431    0.5000
     28 O28        -1.6670    2.5680   45.8007 O.2     1  ZINC000482910431   -0.4800
     29 C29        -6.2437    1.4880   51.4702 C.ar    1  ZINC000482910431   -0.1400
     30 C30        -6.8036    1.7927   52.6954 C.ar    1  ZINC000482910431   -0.0900
     31 H31        -8.5898    4.8723   53.7534 H       1  ZINC000482910431    0.0800
     32 H32        -9.2817    3.2346   53.8394 H       1  ZINC000482910431    0.0700
     33 H33        -9.1063    4.2057   55.3209 H       1  ZINC000482910431    0.0700
     34 H34        -6.8345    4.6529   56.2597 H       1  ZINC000482910431    0.0700
     35 H35        -5.3915    4.0005   55.4471 H       1  ZINC000482910431    0.0700
     36 H36        -6.3180    5.3196   54.6922 H       1  ZINC000482910431    0.0800
     37 H37        -5.7892    4.9987   52.9816 H       1  ZINC000482910431    0.1400
     38 H38        -4.7793    4.4634   50.8020 H       1  ZINC000482910431    0.1400
     39 H39        -5.5050    1.9593   48.7809 H       1  ZINC000482910431    0.4100
     40 H40        -3.6118    1.6187   47.4582 H       1  ZINC000482910431    0.4000
     41 H41        -0.6587    0.4769   49.5942 H       1  ZINC000482910431    0.1100
     42 H42        -1.7976   -0.3802   48.5025 H       1  ZINC000482910431    0.1000
     43 H43         1.0543    0.5112   47.9824 H       1  ZINC000482910431    0.0900
     44 H44         0.1891   -0.9227   47.3535 H       1  ZINC000482910431    0.1000
     45 H45        -1.5543    0.3145   44.1409 H       1  ZINC000482910431    0.1700
     46 H46        -0.5474   -0.0627   41.9272 H       1  ZINC000482910431    0.1500
     47 H47         2.3324    0.9930   45.7887 H       1  ZINC000482910431    0.1500
     48 H48        -6.3720    0.5026   51.0472 H       1  ZINC000482910431    0.1300
     49 H49        -7.3732    1.0460   53.2289 H       1  ZINC000482910431    0.1300
@<TRIPOS>BOND
     1     1     2    1
     2     1    31    1
     3     1    32    1
     4     1    33    1
     5     2     3    1
     6     2     4    1
     7     2     6    1
     8     3    34    1
     9     3    35    1
    10     3    36    1
    11     4     5    3
    12     6    30   ar
    13     6     7   ar
    14     7     8   ar
    15     7    37    1
    16     8     9   ar
    17     8    38    1
    18     9    10    1
    19     9    29   ar
    20    10    11   am
    21    10    39    1
    22    11    12    2
    23    11    13   am
    24    13    14    1
    25    13    40    1
    26    14    15    1
    27    14    27    1
    28    14    16    1
    29    16    17    1
    30    16    41    1
    31    16    42    1
    32    17    18    1
    33    17    43    1
    34    17    44    1
    35    18    19    1
    36    18    27   am
    37    19    26   ar
    38    19    20   ar
    39    20    21   ar
    40    20    45    1
    41    21    22   ar
    42    21    46    1
    43    22    23    1
    44    22    24   ar
    45    24    25    1
    46    24    26   ar
    47    26    47    1
    48    27    28    2
    49    29    30   ar
    50    29    48    1
    51    30    49    1
@<TRIPOS>SUBSTRUCTURE
     1 ZINC000482910431        1 TEMP              0 ****  ****    0 ROOT


##########                                Name:    ZINC001045438664
##########                DOCK_Rotatable_Bonds:                   6
##########                         Heavy_Atoms:                  26
##########                    Molecular_Weight:             352.439
##########                DOCK_Rotatable_Bonds:                   6
##########                       Formal_Charge:          -0.0099999
##########                     HBond_Acceptors:                   7
##########                        HBond_Donors:                   2
##########                         Heavy_Atoms:                  26
##########                          Grid_Score:          -34.641392
##########                     Grid_vdw_energy:          -33.876129
##########                      Grid_es_energy:           -0.765263
##########           Internal_energy_repulsive:           15.183732

@<TRIPOS>MOLECULE
ZINC001045438664
 50 53 1 0 0
SMALL
USER_CHARGES


@<TRIPOS>ATOM
      1 C1          0.1728    0.4461   49.6330 C.3     1  ZINC001045438664   -0.1100
      2 C2         -0.9370    0.9662   48.7560 C.ar    1  ZINC001045438664    0.2100
      3 C3         -2.1110    1.4296   49.3158 C.ar    1  ZINC001045438664   -0.3000
      4 C4         -3.1108    1.9022   48.4628 C.ar    1  ZINC001045438664    0.4500
      5 N5         -4.3065    2.3781   48.9756 N.pl3   1  ZINC001045438664   -0.7100
      6 C6         -4.6420    2.1507   50.3834 C.3     1  ZINC001045438664    0.1500
      7 H7         -4.0215    1.3467   50.7794 H       1  ZINC001045438664    0.0900
      8 C8         -6.1169    1.7610   50.4997 C.3     1  ZINC001045438664   -0.1300
      9 C9         -6.4673    1.5233   51.9699 C.3     1  ZINC001045438664   -0.1200
     10 C10        -6.2137    2.8038   52.7680 C.3     1  ZINC001045438664   -0.1200
     11 C11        -4.7387    3.1935   52.6517 C.3     1  ZINC001045438664   -0.1300
     12 C12        -4.3884    3.4311   51.1814 C.3     1  ZINC001045438664    0.1400
     13 H13        -5.0088    4.2350   50.7854 H       1  ZINC001045438664    0.1000
     14 N14        -2.9761    3.8042   51.0701 N.am    1  ZINC001045438664   -0.7200
     15 C15        -2.6069    5.0933   51.2061 C.2     1  ZINC001045438664    0.5700
     16 O16        -3.4460    5.9465   51.4196 O.2     1  ZINC001045438664   -0.5200
     17 C17        -1.1815    5.4696   51.0955 C.ar    1  ZINC001045438664   -0.2500
     18 C18        -0.7757    6.8012   51.2387 C.ar    1  ZINC001045438664    0.1900
     19 N19         0.5089    7.0928   51.1328 N.ar    1  ZINC001045438664   -0.5200
     20 C20         1.4011    6.1512   50.8960 C.ar    1  ZINC001045438664    0.3200
     21 N21         1.0623    4.8848   50.7538 N.ar    1  ZINC001045438664   -0.5200
     22 C22        -0.1993    4.5034   50.8503 C.ar    1  ZINC001045438664    0.2100
     23 N23        -2.8962    1.8886   47.1506 N.ar    1  ZINC001045438664   -0.5800
     24 C24        -1.7598    1.4371   46.6596 C.ar    1  ZINC001045438664    0.4000
     25 C25        -1.5548    1.4387   45.1666 C.3     1  ZINC001045438664   -0.1100
     26 C26        -0.3970    0.6066   44.6117 C.3     1  ZINC001045438664   -0.1500
     27 C27        -1.8398    0.1379   44.4130 C.3     1  ZINC001045438664   -0.1500
     28 N28        -0.7955    0.9893   47.4380 N.ar    1  ZINC001045438664   -0.5600
     29 H29         0.8370    1.2669   49.9036 H       1  ZINC001045438664    0.0800
     30 H30        -0.2525    0.0098   50.5369 H       1  ZINC001045438664    0.0800
     31 H31         0.7366   -0.3145   49.0929 H       1  ZINC001045438664    0.0800
     32 H32        -2.2528    1.4263   50.3864 H       1  ZINC001045438664    0.1400
     33 H33        -4.9217    2.8618   48.4023 H       1  ZINC001045438664    0.4100
     34 H34        -6.7375    2.5648   50.1036 H       1  ZINC001045438664    0.0700
     35 H35        -6.2976    0.8486   49.9311 H       1  ZINC001045438664    0.0700
     36 H36        -7.5181    1.2458   52.0528 H       1  ZINC001045438664    0.0700
     37 H37        -5.8467    0.7195   52.3660 H       1  ZINC001045438664    0.0700
     38 H38        -6.8341    3.6077   52.3719 H       1  ZINC001045438664    0.0700
     39 H39        -6.4632    2.6346   53.8155 H       1  ZINC001045438664    0.0700
     40 H40        -4.5580    4.1058   53.2203 H       1  ZINC001045438664    0.0800
     41 H41        -4.1182    2.3897   53.0477 H       1  ZINC001045438664    0.0700
     42 H42        -2.3067    3.1236   50.8984 H       1  ZINC001045438664    0.4000
     43 H43        -1.5006    7.5781   51.4325 H       1  ZINC001045438664    0.1700
     44 H44         2.4425    6.4260   50.8155 H       1  ZINC001045438664    0.2100
     45 H45        -0.4689    3.4642   50.7327 H       1  ZINC001045438664    0.1800
     46 H46        -1.7898    2.3751   44.6608 H       1  ZINC001045438664    0.1300
     47 H47         0.1302    0.9958   43.7406 H       1  ZINC001045438664    0.1000
     48 H48         0.2165    0.0581   45.3264 H       1  ZINC001045438664    0.1100
     49 H49        -2.1755   -0.7189   44.9971 H       1  ZINC001045438664    0.1000
     50 H50        -2.2619    0.2188   43.4113 H       1  ZINC001045438664    0.1000
@<TRIPOS>BOND
     1     1     2    1
     2     1    29    1
     3     1    30    1
     4     1    31    1
     5     2    28   ar
     6     2     3   ar
     7     3     4   ar
     8     3    32    1
     9     4     5    1
    10     4    23   ar
    11     5     6    1
    12     5    33    1
    13     6     7    1
    14     6    12    1
    15     6     8    1
    16     8     9    1
    17     8    34    1
    18     8    35    1
    19     9    10    1
    20     9    36    1
    21     9    37    1
    22    10    11    1
    23    10    38    1
    24    10    39    1
    25    11    12    1
    26    11    40    1
    27    11    41    1
    28    12    13    1
    29    12    14    1
    30    14    15   am
    31    14    42    1
    32    15    16    2
    33    15    17    1
    34    17    22   ar
    35    17    18   ar
    36    18    19   ar
    37    18    43    1
    38    19    20   ar
    39    20    21   ar
    40    20    44    1
    41    21    22   ar
    42    22    45    1
    43    23    24   ar
    44    24    25    1
    45    24    28   ar
    46    25    27    1
    47    25    26    1
    48    25    46    1
    49    26    27    1
    50    26    47    1
    51    26    48    1
    52    27    49    1
    53    27    50    1
@<TRIPOS>SUBSTRUCTURE
     1 ZINC001045438664        1 TEMP              0 ****  ****    0 ROOT


##########                                Name:    ZINC000464752079
##########                DOCK_Rotatable_Bonds:                   7
##########                         Heavy_Atoms:                  29
##########                    Molecular_Weight:             404.413
##########                DOCK_Rotatable_Bonds:                   7
##########                       Formal_Charge:         7.45058e-08
##########                     HBond_Acceptors:                   8
##########                        HBond_Donors:                   1
##########                         Heavy_Atoms:                  29
##########                          Grid_Score:          -34.634056
##########                     Grid_vdw_energy:          -33.446281
##########                      Grid_es_energy:           -1.187776
##########           Internal_energy_repulsive:           15.659274

@<TRIPOS>MOLECULE
ZINC000464752079
 51 54 1 0 0
SMALL
USER_CHARGES


@<TRIPOS>ATOM
      1 C1         -0.4044    1.0626   44.2941 C.3     1  ZINC000464752079   -0.1200
      2 C2         -0.0900    2.1112   45.3298 C.ar    1  ZINC000464752079   -0.0800
      3 C3          0.4978    3.3030   44.9501 C.ar    1  ZINC000464752079   -0.1200
      4 C4          0.7862    4.2651   45.9004 C.ar    1  ZINC000464752079   -0.1200
      5 C5          0.4866    4.0350   47.2299 C.ar    1  ZINC000464752079   -0.1300
      6 C6         -0.1022    2.8431   47.6095 C.ar    1  ZINC000464752079   -0.0900
      7 C7         -0.3945    1.8831   46.6590 C.ar    1  ZINC000464752079   -0.0800
      8 C8         -1.0362    0.5839   47.0728 C.3     1  ZINC000464752079    0.2000
      9 H9         -1.6520    0.1993   46.2598 H       1  ZINC000464752079    0.0900
     10 C10         0.0529   -0.4463   47.4389 C.3     1  ZINC000464752079   -0.1200
     11 C11        -0.5622   -1.1844   48.6572 C.3     1  ZINC000464752079   -0.1300
     12 C12        -1.3208   -0.0349   49.3666 C.3     1  ZINC000464752079    0.1000
     13 N13        -1.8632    0.7938   48.2702 N.am    1  ZINC000464752079   -0.6300
     14 C14        -2.9343    1.6073   48.3564 C.2     1  ZINC000464752079    0.7200
     15 O15        -3.2936    2.2444   47.3852 O.2     1  ZINC000464752079   -0.5700
     16 N16        -3.6070    1.7147   49.5193 N.am    1  ZINC000464752079   -0.7400
     17 C17        -4.7723    2.5976   49.6126 C.3     1  ZINC000464752079    0.1900
     18 C18        -5.4822    2.3561   50.9199 C.ar    1  ZINC000464752079   -0.1200
     19 C19        -6.2508    1.2198   51.0882 C.ar    1  ZINC000464752079   -0.0500
     20 C20        -6.9050    0.9951   52.2884 C.ar    1  ZINC000464752079    0.0100
     21 C21        -6.7873    1.9157   53.3266 C.ar    1  ZINC000464752079    0.0800
     22 C22        -6.0153    3.0532   53.1560 C.ar    1  ZINC000464752079   -0.1800
     23 C23        -5.3588    3.2715   51.9545 C.ar    1  ZINC000464752079    0.1400
     24 O24        -4.6009    4.3880   51.7872 O.3     1  ZINC000464752079   -0.3100
     25 C25        -3.7614    4.7716   52.8781 C.3     1  ZINC000464752079    0.4100
     26 F26        -2.4473    4.9260   52.4235 F       1  ZINC000464752079   -0.2000
     27 F27        -4.2152    5.9822   53.4127 F       1  ZINC000464752079   -0.2000
     28 O28        -7.5180    1.4700   54.3900 O.3     1  ZINC000464752079   -0.3000
     29 C29        -8.4117    0.4767   53.8536 C.3     1  ZINC000464752079    0.2100
     30 O30        -7.7102   -0.0280   52.7019 O.3     1  ZINC000464752079   -0.3000
     31 H31        -1.4085    1.2274   43.9034 H       1  ZINC000464752079    0.0700
     32 H32         0.3174    1.1280   43.4800 H       1  ZINC000464752079    0.0700
     33 H33        -0.3497    0.0739   44.7497 H       1  ZINC000464752079    0.0700
     34 H34         0.7319    3.4829   43.9113 H       1  ZINC000464752079    0.1200
     35 H35         1.2462    5.1962   45.6038 H       1  ZINC000464752079    0.1200
     36 H36         0.7125    4.7862   47.9722 H       1  ZINC000464752079    0.1200
     37 H37        -0.3360    2.6631   48.6484 H       1  ZINC000464752079    0.1100
     38 H38         0.2221   -1.1384   46.6139 H       1  ZINC000464752079    0.0900
     39 H39         0.9793    0.0551   47.7192 H       1  ZINC000464752079    0.0800
     40 H40        -1.2502   -1.9656   48.3341 H       1  ZINC000464752079    0.0800
     41 H41         0.2170   -1.5935   49.3004 H       1  ZINC000464752079    0.0900
     42 H42        -2.1319   -0.4346   49.9751 H       1  ZINC000464752079    0.0700
     43 H43        -0.6359    0.5487   49.9817 H       1  ZINC000464752079    0.0700
     44 H44        -3.3197    1.2072   50.2945 H       1  ZINC000464752079    0.4000
     45 H45        -4.4459    3.6364   49.5629 H       1  ZINC000464752079    0.0800
     46 H46        -5.4522    2.3904   48.7862 H       1  ZINC000464752079    0.0800
     47 H47        -6.3419    0.5062   50.2826 H       1  ZINC000464752079    0.1500
     48 H48        -5.9225    3.7685   53.9600 H       1  ZINC000464752079    0.1500
     49 H49        -3.7912    4.0006   53.6481 H       1  ZINC000464752079    0.1900
     50 H50        -8.5794   -0.3193   54.5791 H       1  ZINC000464752079    0.1400
     51 H51        -9.3568    0.9318   53.5574 H       1  ZINC000464752079    0.0900
@<TRIPOS>BOND
     1     1     2    1
     2     1    31    1
     3     1    32    1
     4     1    33    1
     5     2     7   ar
     6     2     3   ar
     7     3     4   ar
     8     3    34    1
     9     4     5   ar
    10     4    35    1
    11     5     6   ar
    12     5    36    1
    13     6     7   ar
    14     6    37    1
    15     7     8    1
    16     8     9    1
    17     8    13    1
    18     8    10    1
    19    10    11    1
    20    10    38    1
    21    10    39    1
    22    11    12    1
    23    11    40    1
    24    11    41    1
    25    12    13    1
    26    12    42    1
    27    12    43    1
    28    13    14   am
    29    14    15    2
    30    14    16   am
    31    16    17    1
    32    16    44    1
    33    17    18    1
    34    17    45    1
    35    17    46    1
    36    18    23   ar
    37    18    19   ar
    38    19    20   ar
    39    19    47    1
    40    20    30    1
    41    20    21   ar
    42    21    22   ar
    43    21    28    1
    44    22    23   ar
    45    22    48    1
    46    23    24    1
    47    24    25    1
    48    25    26    1
    49    25    27    1
    50    25    49    1
    51    28    29    1
    52    29    30    1
    53    29    50    1
    54    29    51    1
@<TRIPOS>SUBSTRUCTURE
     1 ZINC000464752079        1 TEMP              0 ****  ****    0 ROOT


##########                                Name:    ZINC000980108339
##########                DOCK_Rotatable_Bonds:                   9
##########                         Heavy_Atoms:                  25
##########                    Molecular_Weight:             348.445
##########                DOCK_Rotatable_Bonds:                   9
##########                       Formal_Charge:          -0.0100001
##########                     HBond_Acceptors:                   7
##########                        HBond_Donors:                   3
##########                         Heavy_Atoms:                  25
##########                          Grid_Score:          -34.611473
##########                     Grid_vdw_energy:          -34.066559
##########                      Grid_es_energy:           -0.544916
##########           Internal_energy_repulsive:            6.530509

@<TRIPOS>MOLECULE
ZINC000980108339
 53 56 1 0 0
SMALL
USER_CHARGES


@<TRIPOS>ATOM
      1 C1          0.9967    0.2846   46.7304 C.3     1  ZINC000980108339    0.1200
      2 N2          0.0239    0.3911   47.8206 N.am    1  ZINC000980108339   -0.6400
      3 C3         -0.3570    1.6362   48.5040 C.3     1  ZINC000980108339    0.1100
      4 C4         -1.3960    1.1817   49.5474 C.3     1  ZINC000980108339    0.1000
      5 H5         -1.0474    1.4031   50.5562 H       1  ZINC000980108339    0.1200
      6 C6         -2.7261    1.8427   49.2920 C.2     1  ZINC000980108339    0.5000
      7 O7         -3.2808    1.6961   48.2235 O.2     1  ZINC000980108339   -0.5200
      8 N8         -3.2991    2.5965   50.2510 N.am    1  ZINC000980108339   -0.7200
      9 C9         -4.5912    3.2404   50.0022 C.3     1  ZINC000980108339    0.1300
     10 C10        -5.6793    2.5295   50.8095 C.3     1  ZINC000980108339   -0.1200
     11 H11        -5.6912    1.4518   50.6466 H       1  ZINC000980108339    0.1000
     12 C12        -5.7044    2.9283   52.2944 C.3     1  ZINC000980108339   -0.1400
     13 C13        -7.2388    2.9090   52.1925 C.3     1  ZINC000980108339    0.1200
     14 H14        -7.7226    3.7219   52.7339 H       1  ZINC000980108339    0.1100
     15 N15        -7.8298    1.6005   52.4837 N.am    1  ZINC000980108339   -0.7200
     16 C16        -9.1637    1.4822   52.6352 C.2     1  ZINC000980108339    0.5200
     17 O17        -9.8751    2.4588   52.5290 O.2     1  ZINC000980108339   -0.5300
     18 C18        -9.7716    0.1364   52.9365 C.3     1  ZINC000980108339   -0.1100
     19 C19       -10.2315    0.0997   54.3953 C.3     1  ZINC000980108339   -0.1300
     20 H20       -11.1714    0.6103   54.6049 H       1  ZINC000980108339    0.1200
     21 C21        -9.1509    0.1364   55.4778 C.3     1  ZINC000980108339   -0.1700
     22 C22        -9.9165   -1.1605   55.2037 C.3     1  ZINC000980108339   -0.1200
     23 H23        -9.3814   -1.9633   54.6965 H       1  ZINC000980108339    0.1000
     24 C24       -10.9443   -1.6076   56.2452 C.3     1  ZINC000980108339   -0.1300
     25 C25       -10.8992   -3.0677   56.7007 C.3     1  ZINC000980108339   -0.1800
     26 C26       -10.4280   -1.9576   57.6423 C.3     1  ZINC000980108339   -0.1800
     27 C27        -7.0646    3.1860   50.6882 C.3     1  ZINC000980108339   -0.1400
     28 N28        -1.4902   -0.2712   49.3411 N.am    1  ZINC000980108339   -0.7200
     29 C29        -0.6641   -0.6294   48.3493 C.2     1  ZINC000980108339    0.7000
     30 O30        -0.5430   -1.7780   47.9696 O.2     1  ZINC000980108339   -0.5800
     31 H31         1.0757   -0.7556   46.4143 H       1  ZINC000980108339    0.0900
     32 H32         0.6686    0.8959   45.8896 H       1  ZINC000980108339    0.0600
     33 H33         1.9695    0.6343   47.0760 H       1  ZINC000980108339    0.0600
     34 H34         0.5077    2.0832   48.9947 H       1  ZINC000980108339    0.1000
     35 H35        -0.8037    2.3379   47.7998 H       1  ZINC000980108339    0.0900
     36 H36        -2.8561    2.7126   51.1062 H       1  ZINC000980108339    0.4000
     37 H37        -4.5400    4.2865   50.3040 H       1  ZINC000980108339    0.0700
     38 H38        -4.8289    3.1799   48.9402 H       1  ZINC000980108339    0.0700
     39 H39        -5.3014    2.1640   52.9588 H       1  ZINC000980108339    0.0800
     40 H40        -5.2922    3.9187   52.4875 H       1  ZINC000980108339    0.1000
     41 H41        -7.2610    0.8192   52.5674 H       1  ZINC000980108339    0.4000
     42 H42       -10.6267   -0.0308   52.2816 H       1  ZINC000980108339    0.1000
     43 H43        -9.0284   -0.6433   52.7701 H       1  ZINC000980108339    0.1000
     44 H44        -8.1123    0.1867   55.1507 H       1  ZINC000980108339    0.0900
     45 H45        -9.3801    0.6708   56.3998 H       1  ZINC000980108339    0.1000
     46 H46       -11.9226   -1.1321   56.1746 H       1  ZINC000980108339    0.1000
     47 H47       -11.8480   -3.5529   56.9297 H       1  ZINC000980108339    0.0900
     48 H48       -10.1374   -3.7095   56.2584 H       1  ZINC000980108339    0.0900
     49 H49        -9.3561   -1.8691   57.8195 H       1  ZINC000980108339    0.0900
     50 H50       -11.0668   -1.7125   58.4908 H       1  ZINC000980108339    0.0900
     51 H51        -7.0241    4.2469   50.4414 H       1  ZINC000980108339    0.1000
     52 H52        -7.7593    2.6301   50.0585 H       1  ZINC000980108339    0.0800
     53 H53        -2.0627   -0.8739   49.8409 H       1  ZINC000980108339    0.4400
@<TRIPOS>BOND
     1     1     2    1
     2     1    31    1
     3     1    32    1
     4     1    33    1
     5     2    29   am
     6     2     3    1
     7     3     4    1
     8     3    34    1
     9     3    35    1
    10     4     5    1
    11     4     6    1
    12     4    28    1
    13     6     7    2
    14     6     8   am
    15     8     9    1
    16     8    36    1
    17     9    10    1
    18     9    37    1
    19     9    38    1
    20    10    11    1
    21    10    27    1
    22    10    12    1
    23    12    13    1
    24    12    39    1
    25    12    40    1
    26    13    14    1
    27    13    15    1
    28    13    27    1
    29    15    16   am
    30    15    41    1
    31    16    17    2
    32    16    18    1
    33    18    19    1
    34    18    42    1
    35    18    43    1
    36    19    20    1
    37    19    22    1
    38    19    21    1
    39    21    22    1
    40    21    44    1
    41    21    45    1
    42    22    23    1
    43    22    24    1
    44    24    26    1
    45    24    25    1
    46    24    46    1
    47    25    26    1
    48    25    47    1
    49    25    48    1
    50    26    49    1
    51    26    50    1
    52    27    51    1
    53    27    52    1
    54    28    29   am
    55    28    53    1
    56    29    30    2
@<TRIPOS>SUBSTRUCTURE
     1 ZINC000980108339        1 TEMP              0 ****  ****    0 ROOT


##########                                Name:    ZINC000504243286
##########                DOCK_Rotatable_Bonds:                   7
##########                         Heavy_Atoms:                  29
##########                    Molecular_Weight:             408.337
##########                DOCK_Rotatable_Bonds:                   7
##########                       Formal_Charge:           0.0299994
##########                     HBond_Acceptors:                  11
##########                        HBond_Donors:                   3
##########                         Heavy_Atoms:                  29
##########                          Grid_Score:          -34.607979
##########                     Grid_vdw_energy:          -35.504498
##########                      Grid_es_energy:            0.896520
##########           Internal_energy_repulsive:           11.051721

@<TRIPOS>MOLECULE
ZINC000504243286
 44 46 1 0 0
SMALL
USER_CHARGES


@<TRIPOS>ATOM
      1 O1         -3.1145    3.5383   52.6701 O.2     1  ZINC000504243286   -0.5200
      2 C2         -3.9929    3.8152   51.8808 C.2     1  ZINC000504243286    0.5200
      3 C3         -5.2653    4.4612   52.3655 C.3     1  ZINC000504243286   -0.1600
      4 C4         -5.8545    3.6326   53.5087 C.3     1  ZINC000504243286    0.1300
      5 N5         -5.9049    2.2226   53.1143 N.pl3   1  ZINC000504243286   -0.7200
      6 C6         -6.9819    1.4253   53.5082 C.ar    1  ZINC000504243286    0.3100
      7 C7         -7.5745    1.6197   54.7492 C.ar    1  ZINC000504243286   -0.1900
      8 C8         -8.6397    0.8298   55.1355 C.ar    1  ZINC000504243286    0.0200
      9 C9         -9.1161   -0.1537   54.2884 C.ar    1  ZINC000504243286   -0.2400
     10 C10       -10.2788   -1.0132   54.7130 C.3     1  ZINC000504243286    0.5200
     11 F11       -11.0866   -1.2861   53.6040 F       1  ZINC000504243286   -0.1700
     12 F12        -9.8002   -2.2139   55.2481 F       1  ZINC000504243286   -0.1700
     13 F13       -11.0290   -0.3373   55.6814 F       1  ZINC000504243286   -0.1700
     14 C14        -8.5283   -0.3499   53.0519 C.ar    1  ZINC000504243286    0.0400
     15 C15        -7.4665    0.4397   52.6574 C.ar    1  ZINC000504243286   -0.1200
     16 N16        -6.8380    0.2289   51.3341 N.pl3   1  ZINC000504243286    0.0400
     17 O17        -6.4495    1.1837   50.6853 O.2     1  ZINC000504243286   -0.1700
     18 O18        -6.7093   -0.8994   50.8937 O.2     1  ZINC000504243286   -0.1400
     19 N19        -3.8286    3.5503   50.5696 N.am    1  ZINC000504243286   -0.6700
     20 C20        -2.6460    2.9498   50.1191 C.ar    1  ZINC000504243286    0.1200
     21 C21        -1.4342    3.6163   50.2431 C.ar    1  ZINC000504243286   -0.1000
     22 C22        -0.2681    3.0276   49.8010 C.ar    1  ZINC000504243286   -0.1200
     23 C23        -0.2972    1.7589   49.2257 C.ar    1  ZINC000504243286    0.1300
     24 N24         0.7322    0.9676   48.7100 N.am    1  ZINC000504243286   -0.6600
     25 C25         0.2827   -0.2078   48.2393 C.2     1  ZINC000504243286    0.5300
     26 O26         0.9521   -1.0863   47.7378 O.2     1  ZINC000504243286   -0.5000
     27 C27        -1.2158   -0.2302   48.4528 C.3     1  ZINC000504243286   -0.1200
     28 C28        -1.5146    1.0997   49.1058 C.ar    1  ZINC000504243286   -0.1200
     29 C29        -2.6791    1.6815   49.5510 C.ar    1  ZINC000504243286   -0.0600
     30 H30        -5.0487    5.4686   52.7209 H       1  ZINC000504243286    0.1100
     31 H31        -5.9822    4.5113   51.5460 H       1  ZINC000504243286    0.1100
     32 H32        -5.2291    3.7398   54.3950 H       1  ZINC000504243286    0.0800
     33 H33        -6.8621    3.9841   53.7304 H       1  ZINC000504243286    0.0900
     34 H34        -5.1903    1.8427   52.5796 H       1  ZINC000504243286    0.4100
     35 H35        -7.2027    2.3875   55.4115 H       1  ZINC000504243286    0.1600
     36 H36        -9.1009    0.9802   56.1005 H       1  ZINC000504243286    0.1600
     37 H37        -8.9028   -1.1190   52.3926 H       1  ZINC000504243286    0.1600
     38 H38        -4.5294    3.7755   49.9378 H       1  ZINC000504243286    0.4200
     39 H39        -1.4048    4.6001   50.6874 H       1  ZINC000504243286    0.1400
     40 H40         0.6708    3.5519   49.9007 H       1  ZINC000504243286    0.1300
     41 H41         1.6642    1.2359   48.6936 H       1  ZINC000504243286    0.4100
     42 H42        -1.7362   -0.3125   47.4986 H       1  ZINC000504243286    0.1300
     43 H43        -1.4951   -1.0512   49.1132 H       1  ZINC000504243286    0.1300
     44 H44        -3.6176    1.1554   49.4560 H       1  ZINC000504243286    0.1500
@<TRIPOS>BOND
     1     1     2    2
     2     2     3    1
     3     2    19   am
     4     3     4    1
     5     3    30    1
     6     3    31    1
     7     4     5    1
     8     4    32    1
     9     4    33    1
    10     5     6    1
    11     5    34    1
    12     6    15   ar
    13     6     7   ar
    14     7     8   ar
    15     7    35    1
    16     8     9   ar
    17     8    36    1
    18     9    10    1
    19     9    14   ar
    20    10    11    1
    21    10    12    1
    22    10    13    1
    23    14    15   ar
    24    14    37    1
    25    15    16    1
    26    16    17    2
    27    16    18    2
    28    19    20    1
    29    19    38    1
    30    20    29   ar
    31    20    21   ar
    32    21    22   ar
    33    21    39    1
    34    22    23   ar
    35    22    40    1
    36    23    28   ar
    37    23    24    1
    38    24    25   am
    39    24    41    1
    40    25    26    2
    41    25    27    1
    42    27    28    1
    43    27    42    1
    44    27    43    1
    45    28    29   ar
    46    29    44    1
@<TRIPOS>SUBSTRUCTURE
     1 ZINC000504243286        1 TEMP              0 ****  ****    0 ROOT


##########                                Name:    ZINC000470948647
##########                DOCK_Rotatable_Bonds:                   6
##########                         Heavy_Atoms:                  29
##########                    Molecular_Weight:             412.556
##########                DOCK_Rotatable_Bonds:                   6
##########                       Formal_Charge:           0.0100001
##########                     HBond_Acceptors:                   7
##########                        HBond_Donors:                   1
##########                         Heavy_Atoms:                  29
##########                          Grid_Score:          -34.604168
##########                     Grid_vdw_energy:          -32.489738
##########                      Grid_es_energy:           -2.114429
##########           Internal_energy_repulsive:           16.465231

@<TRIPOS>MOLECULE
ZINC000470948647
 57 60 1 0 0
SMALL
USER_CHARGES


@<TRIPOS>ATOM
      1 C1        -10.0393   -0.8347   53.5657 C.3     1  ZINC000470948647   -0.1100
      2 C2         -9.1073    0.1164   52.8602 C.ar    1  ZINC000470948647   -0.1000
      3 C3         -7.9354   -0.3557   52.2987 C.ar    1  ZINC000470948647   -0.1100
      4 C4         -7.0789    0.5135   51.6513 C.ar    1  ZINC000470948647   -0.1100
      5 C5         -7.3961    1.8625   51.5646 C.ar    1  ZINC000470948647    0.1400
      6 N6         -6.5309    2.7455   50.9092 N.am    1  ZINC000470948647   -0.6700
      7 C7         -5.2707    2.9112   51.3574 C.2     1  ZINC000470948647    0.5100
      8 O8         -4.8866    2.2949   52.3289 O.2     1  ZINC000470948647   -0.4800
      9 C9         -4.3388    3.8623   50.6515 C.3     1  ZINC000470948647    0.1200
     10 H10        -4.7699    4.1208   49.6844 H       1  ZINC000470948647    0.1200
     11 C11        -4.2080    5.1493   51.4973 C.3     1  ZINC000470948647   -0.0700
     12 S12        -2.6336    4.8313   52.3989 S.3     1  ZINC000470948647   -0.2500
     13 C13        -1.8924    3.8631   51.0199 C.3     1  ZINC000470948647    0.1600
     14 N14        -3.0656    3.1932   50.4323 N.am    1  ZINC000470948647   -0.6000
     15 C15        -2.9679    2.0424   49.7375 C.2     1  ZINC000470948647    0.6300
     16 O16        -3.9654    1.5278   49.2704 O.2     1  ZINC000470948647   -0.5100
     17 C17        -1.6489    1.4065   49.5433 C.2     1  ZINC000470948647   -0.0100
     18 N18        -0.4923    2.0245   49.4094 N.2     1  ZINC000470948647   -0.2700
     19 N19         0.4513    1.1660   49.2580 N.pl3   1  ZINC000470948647   -0.2700
     20 C20         1.8669    1.4994   49.0810 C.3     1  ZINC000470948647    0.1500
     21 C21         1.9881    2.8532   48.3786 C.3     1  ZINC000470948647   -0.1300
     22 C22         3.4665    3.2014   48.1939 C.3     1  ZINC000470948647   -0.1200
     23 C23         4.1483    3.2735   49.5616 C.3     1  ZINC000470948647   -0.1300
     24 C24         4.0270    1.9196   50.2640 C.3     1  ZINC000470948647   -0.1200
     25 C25         2.5487    1.5715   50.4488 C.3     1  ZINC000470948647   -0.1300
     26 C26        -0.0492   -0.0879   49.2856 C.2     1  ZINC000470948647   -0.0100
     27 C27        -1.3858    0.0180   49.4720 C.2     1  ZINC000470948647   -0.1700
     28 C28        -8.5744    2.3335   52.1295 C.ar    1  ZINC000470948647   -0.1100
     29 C29        -8.9228    3.7968   52.0372 C.3     1  ZINC000470948647   -0.1100
     30 C30        -9.4287    1.4586   52.7710 C.ar    1  ZINC000470948647   -0.1000
     31 H31       -10.7546   -1.2403   52.8500 H       1  ZINC000470948647    0.0700
     32 H32        -9.4633   -1.6491   54.0050 H       1  ZINC000470948647    0.0700
     33 H33       -10.5745   -0.3026   54.3523 H       1  ZINC000470948647    0.0700
     34 H34        -7.6892   -1.4050   52.3664 H       1  ZINC000470948647    0.1200
     35 H35        -6.1632    0.1443   51.2134 H       1  ZINC000470948647    0.1400
     36 H36        -6.8380    3.2384   50.1322 H       1  ZINC000470948647    0.4100
     37 H37        -4.1235    6.0296   50.8601 H       1  ZINC000470948647    0.1200
     38 H38        -5.0432    5.2487   52.1907 H       1  ZINC000470948647    0.1200
     39 H39        -1.4191    4.5243   50.2941 H       1  ZINC000470948647    0.1000
     40 H40        -1.1797    3.1315   51.4005 H       1  ZINC000470948647    0.1400
     41 H41         2.3480    0.7315   48.4753 H       1  ZINC000470948647    0.1100
     42 H42         1.5023    2.8018   47.4043 H       1  ZINC000470948647    0.0800
     43 H43         1.5069    3.6211   48.9844 H       1  ZINC000470948647    0.0800
     44 H44         3.9476    2.4335   47.5881 H       1  ZINC000470948647    0.0700
     45 H45         3.5528    4.1659   47.6936 H       1  ZINC000470948647    0.0800
     46 H46         5.2014    3.5215   49.4301 H       1  ZINC000470948647    0.0700
     47 H47         3.6671    4.0414   50.1675 H       1  ZINC000470948647    0.0700
     48 H48         4.5081    1.1517   49.6582 H       1  ZINC000470948647    0.0700
     49 H49         4.5128    1.9711   51.2384 H       1  ZINC000470948647    0.0700
     50 H50         2.0675    2.3394   51.0545 H       1  ZINC000470948647    0.0700
     51 H51         2.4623    0.6070   50.9491 H       1  ZINC000470948647    0.0700
     52 H52         0.5128   -1.0044   49.1831 H       1  ZINC000470948647    0.1800
     53 H53        -2.1016   -0.7875   49.5437 H       1  ZINC000470948647    0.1600
     54 H54        -9.5002    3.9763   51.1303 H       1  ZINC000470948647    0.0700
     55 H55        -9.5133    4.0851   52.9068 H       1  ZINC000470948647    0.0700
     56 H56        -8.0071    4.3872   52.0077 H       1  ZINC000470948647    0.0600
     57 H57       -10.3451    1.8242   53.2101 H       1  ZINC000470948647    0.1300
@<TRIPOS>BOND
     1     1     2    1
     2     1    31    1
     3     1    32    1
     4     1    33    1
     5     2    30   ar
     6     2     3   ar
     7     3     4   ar
     8     3    34    1
     9     4     5   ar
    10     4    35    1
    11     5     6    1
    12     5    28   ar
    13     6     7   am
    14     6    36    1
    15     7     8    2
    16     7     9    1
    17     9    10    1
    18     9    14    1
    19     9    11    1
    20    11    12    1
    21    11    37    1
    22    11    38    1
    23    12    13    1
    24    13    14    1
    25    13    39    1
    26    13    40    1
    27    14    15   am
    28    15    16    2
    29    15    17    1
    30    17    27    1
    31    17    18    2
    32    18    19    1
    33    19    20    1
    34    19    26    1
    35    20    25    1
    36    20    21    1
    37    20    41    1
    38    21    22    1
    39    21    42    1
    40    21    43    1
    41    22    23    1
    42    22    44    1
    43    22    45    1
    44    23    24    1
    45    23    46    1
    46    23    47    1
    47    24    25    1
    48    24    48    1
    49    24    49    1
    50    25    50    1
    51    25    51    1
    52    26    27    2
    53    26    52    1
    54    27    53    1
    55    28    29    1
    56    28    30   ar
    57    29    54    1
    58    29    55    1
    59    29    56    1
    60    30    57    1
@<TRIPOS>SUBSTRUCTURE
     1 ZINC000470948647        1 TEMP              0 ****  ****    0 ROOT


##########                                Name:    ZINC001401207732
##########                DOCK_Rotatable_Bonds:                   8
##########                         Heavy_Atoms:                  23
##########                    Molecular_Weight:             337.446
##########                DOCK_Rotatable_Bonds:                   8
##########                       Formal_Charge:          -0.0199995
##########                     HBond_Acceptors:                   8
##########                        HBond_Donors:                   1
##########                         Heavy_Atoms:                  23
##########                          Grid_Score:          -34.601208
##########                     Grid_vdw_energy:          -33.991837
##########                      Grid_es_energy:           -0.609371
##########           Internal_energy_repulsive:           23.521542

@<TRIPOS>MOLECULE
ZINC001401207732
 46 47 1 0 0
SMALL
USER_CHARGES


@<TRIPOS>ATOM
      1 C1          1.9733    0.9884   44.9805 C.3     1  ZINC001401207732   -0.0900
      2 C2          0.5338    0.7603   44.5972 C.2     1  ZINC001401207732    0.1500
      3 C3         -0.4926    0.8955   45.4740 C.2     1  ZINC001401207732   -0.3000
      4 C4         -0.3789    1.2709   46.8874 C.2     1  ZINC001401207732    0.6100
      5 O5          0.0200    2.3793   47.1923 O.2     1  ZINC001401207732   -0.5200
      6 N6         -0.7164    0.3882   47.8483 N.am    1  ZINC001401207732   -0.5900
      7 C7         -1.1967   -0.9462   47.4812 C.3     1  ZINC001401207732    0.0700
      8 C8         -0.6029    0.7632   49.2599 C.3     1  ZINC001401207732    0.1400
      9 H9         -0.9067   -0.0768   49.8846 H       1  ZINC001401207732    0.1100
     10 C10         0.8479    1.1338   49.5742 C.3     1  ZINC001401207732   -0.1600
     11 C11        -1.5087    1.9633   49.5433 C.3     1  ZINC001401207732    0.0500
     12 N12        -2.9120    1.5737   49.3511 N.3     1  ZINC001401207732   -0.6800
     13 C13        -3.8170    2.6777   49.6981 C.3     1  ZINC001401207732    0.1500
     14 C14        -5.0176    2.1325   50.4277 C.2     1  ZINC001401207732    0.1800
     15 N15        -5.7301    2.7567   51.3346 N.2     1  ZINC001401207732   -0.4800
     16 C16        -6.6896    1.8886   51.7016 C.2     1  ZINC001401207732    0.1800
     17 C17        -7.7688    2.1322   52.7248 C.3     1  ZINC001401207732   -0.0100
     18 C18        -7.1338    2.6112   54.0317 C.3     1  ZINC001401207732   -0.1500
     19 C19        -8.7330    3.2003   52.2048 C.3     1  ZINC001401207732   -0.1500
     20 N20        -6.5150    0.8010   51.0120 N.2     1  ZINC001401207732   -0.3800
     21 O21        -5.5631    0.9227   50.2701 O.3     1  ZINC001401207732    0.0900
     22 S22        -1.9861    0.5317   44.6124 S.3     1  ZINC001401207732    0.1800
     23 C23        -1.1005    0.2478   43.1780 C.2     1  ZINC001401207732    0.0100
     24 N24         0.1656    0.4151   43.3890 N.2     1  ZINC001401207732   -0.4800
     25 H25         2.4092    0.0523   45.3296 H       1  ZINC001401207732    0.0800
     26 H26         2.5279    1.3462   44.1130 H       1  ZINC001401207732    0.0800
     27 H27         2.0240    1.7318   45.7761 H       1  ZINC001401207732    0.1000
     28 H28        -2.2656   -0.9027   47.2715 H       1  ZINC001401207732    0.0600
     29 H29        -0.6662   -1.2921   46.5941 H       1  ZINC001401207732    0.0800
     30 H30        -1.0160   -1.6367   48.3049 H       1  ZINC001401207732    0.0900
     31 H31         0.9323    1.4128   50.6245 H       1  ZINC001401207732    0.0700
     32 H32         1.4932    0.2788   49.3724 H       1  ZINC001401207732    0.0700
     33 H33         1.1518    1.9738   48.9496 H       1  ZINC001401207732    0.0600
     34 H34        -1.2602    2.7753   48.8600 H       1  ZINC001401207732    0.0800
     35 H35        -1.3612    2.2952   50.5710 H       1  ZINC001401207732    0.0500
     36 H36        -3.1330    0.7446   49.8819 H       1  ZINC001401207732    0.3600
     37 H37        -4.1427    3.1803   48.7874 H       1  ZINC001401207732    0.1100
     38 H38        -3.2944    3.3883   50.3384 H       1  ZINC001401207732    0.0800
     39 H39        -8.3151    1.2061   52.9043 H       1  ZINC001401207732    0.1000
     40 H40        -7.9144    2.7874   54.7718 H       1  ZINC001401207732    0.0700
     41 H41        -6.4470    1.8503   54.4022 H       1  ZINC001401207732    0.0600
     42 H42        -6.5877    3.5373   53.8523 H       1  ZINC001401207732    0.0600
     43 H43        -9.1854    2.8591   51.2736 H       1  ZINC001401207732    0.0600
     44 H44        -9.5136    3.3765   52.9448 H       1  ZINC001401207732    0.0700
     45 H45        -8.1868    4.1264   52.0252 H       1  ZINC001401207732    0.0600
     46 H46        -1.5353   -0.0357   42.2309 H       1  ZINC001401207732    0.2000
@<TRIPOS>BOND
     1     1     2    1
     2     1    25    1
     3     1    26    1
     4     1    27    1
     5     2    24    1
     6     2     3    2
     7     3     4    1
     8     3    22    1
     9     4     5    2
    10     4     6   am
    11     6     7    1
    12     6     8    1
    13     7    28    1
    14     7    29    1
    15     7    30    1
    16     8     9    1
    17     8    10    1
    18     8    11    1
    19    10    31    1
    20    10    32    1
    21    10    33    1
    22    11    12    1
    23    11    34    1
    24    11    35    1
    25    12    13    1
    26    12    36    1
    27    13    14    1
    28    13    37    1
    29    13    38    1
    30    14    21    1
    31    14    15    2
    32    15    16    1
    33    16    17    1
    34    16    20    2
    35    17    18    1
    36    17    19    1
    37    17    39    1
    38    18    40    1
    39    18    41    1
    40    18    42    1
    41    19    43    1
    42    19    44    1
    43    19    45    1
    44    20    21    1
    45    22    23    1
    46    23    24    2
    47    23    46    1
@<TRIPOS>SUBSTRUCTURE
     1 ZINC001401207732        1 TEMP              0 ****  ****    0 ROOT


##########                                Name:    ZINC000550011575
##########                DOCK_Rotatable_Bonds:                   6
##########                         Heavy_Atoms:                  28
##########                    Molecular_Weight:             423.935
##########                DOCK_Rotatable_Bonds:                   6
##########                       Formal_Charge:          -0.0100002
##########                     HBond_Acceptors:                   7
##########                        HBond_Donors:                   0
##########                         Heavy_Atoms:                  28
##########                          Grid_Score:          -34.578632
##########                     Grid_vdw_energy:          -34.244362
##########                      Grid_es_energy:           -0.334271
##########           Internal_energy_repulsive:           50.181808

@<TRIPOS>MOLECULE
ZINC000550011575
 51 53 1 0 0
SMALL
USER_CHARGES


@<TRIPOS>ATOM
      1 C1          0.2263   -0.6866   48.1299 C.3     1  ZINC000550011575   -0.1400
      2 C2         -0.5293    0.4506   47.4396 C.3     1  ZINC000550011575   -0.6100
      3 H3          0.1784    1.2154   47.1195 H       1  ZINC000550011575    0.1500
      4 C4         -1.2625   -0.0895   46.2388 C.2     1  ZINC000550011575    0.5400
      5 O5         -1.6912   -1.2239   46.2498 O.2     1  ZINC000550011575   -0.5100
      6 N6         -1.4416    0.6881   45.1526 N.am    1  ZINC000550011575   -0.6000
      7 C7         -2.1557    0.1636   43.9859 C.3     1  ZINC000550011575    0.0600
      8 C8         -0.9219    2.0577   45.1387 C.3     1  ZINC000550011575    0.1500
      9 C9          0.5685    2.0275   44.9178 C.ar    1  ZINC000550011575   -0.1500
     10 C10         1.1285    1.0571   44.1050 C.ar    1  ZINC000550011575    0.1400
     11 F11         0.3392    0.1364   43.5094 F       1  ZINC000550011575   -0.1100
     12 C12         2.4982    1.0308   43.9023 C.ar    1  ZINC000550011575   -0.1500
     13 C13         3.3050    1.9730   44.5112 C.ar    1  ZINC000550011575   -0.0700
     14 C14         2.7457    2.9423   45.3230 C.ar    1  ZINC000550011575   -0.1300
     15 C15         1.3771    2.9732   45.5224 C.ar    1  ZINC000550011575    0.0000
     16 Cl16        0.6756    4.1912   46.5413 Cl      1  ZINC000550011575   -0.0500
     17 S17        -1.7205    1.1767   48.5992 S.o2    1  ZINC000550011575    2.4500
     18 O18        -2.8445    1.6394   47.8631 O.2     1  ZINC000550011575   -0.9200
     19 O19        -1.9206    0.2663   49.6718 O.2     1  ZINC000550011575   -0.9100
     20 C20        -0.8071    2.6139   49.2238 C.3     1  ZINC000550011575   -0.5300
     21 H21        -0.7670    3.3790   48.4485 H       1  ZINC000550011575    0.1500
     22 C22         0.6145    2.1889   49.5857 C.3     1  ZINC000550011575   -0.1100
     23 C23         1.2991    3.3544   50.3093 C.3     1  ZINC000550011575   -0.1100
     24 C24         0.6520    3.5154   51.6834 C.3     1  ZINC000550011575   -0.0900
     25 C25        -0.8472    3.5899   51.5571 C.ar    1  ZINC000550011575   -0.0600
     26 C26        -1.5615    4.1069   52.6298 C.ar    1  ZINC000550011575   -0.1200
     27 C27        -2.9374    4.1964   52.5780 C.ar    1  ZINC000550011575   -0.1100
     28 C28        -3.6111    3.7673   51.4499 C.ar    1  ZINC000550011575   -0.1100
     29 C29        -2.9029    3.2555   50.3821 C.ar    1  ZINC000550011575   -0.1500
     30 C30        -1.5174    3.1675   50.4313 C.ar    1  ZINC000550011575   -0.0800
     31 H31         0.8838   -0.2739   48.8952 H       1  ZINC000550011575    0.0900
     32 H32        -0.4870   -1.3683   48.5930 H       1  ZINC000550011575    0.0900
     33 H33         0.8205   -1.2276   47.3935 H       1  ZINC000550011575    0.0800
     34 H34        -3.2204    0.3742   44.0867 H       1  ZINC000550011575    0.0700
     35 H35        -1.7750    0.6401   43.0826 H       1  ZINC000550011575    0.0800
     36 H36        -2.0029   -0.9136   43.9205 H       1  ZINC000550011575    0.0700
     37 H37        -1.3973    2.6185   44.3339 H       1  ZINC000550011575    0.1000
     38 H38        -1.1381    2.5381   46.0930 H       1  ZINC000550011575    0.1100
     39 H39         2.9358    0.2737   43.2686 H       1  ZINC000550011575    0.1500
     40 H40         4.3732    1.9519   44.3532 H       1  ZINC000550011575    0.1500
     41 H41         3.3772    3.6780   45.7987 H       1  ZINC000550011575    0.1400
     42 H42         0.5817    1.3185   50.2412 H       1  ZINC000550011575    0.0800
     43 H43         1.1669    1.9449   48.6783 H       1  ZINC000550011575    0.0900
     44 H44         2.3614    3.1405   50.4266 H       1  ZINC000550011575    0.0800
     45 H45         1.1701    4.2707   49.7332 H       1  ZINC000550011575    0.0700
     46 H46         0.9181    2.6629   52.3082 H       1  ZINC000550011575    0.0800
     47 H47         1.0194    4.4300   52.1488 H       1  ZINC000550011575    0.0800
     48 H48        -1.0358    4.4415   53.5119 H       1  ZINC000550011575    0.1300
     49 H49        -3.4861    4.6000   53.4162 H       1  ZINC000550011575    0.1300
     50 H50        -4.6883    3.8322   51.4046 H       1  ZINC000550011575    0.1300
     51 H51        -3.4301    2.9199   49.5014 H       1  ZINC000550011575    0.1700
@<TRIPOS>BOND
     1     1     2    1
     2     1    31    1
     3     1    32    1
     4     1    33    1
     5     2     3    1
     6     2     4    1
     7     2    17    1
     8     4     5    2
     9     4     6   am
    10     6     7    1
    11     6     8    1
    12     7    34    1
    13     7    35    1
    14     7    36    1
    15     8     9    1
    16     8    37    1
    17     8    38    1
    18     9    15   ar
    19     9    10   ar
    20    10    11    1
    21    10    12   ar
    22    12    13   ar
    23    12    39    1
    24    13    14   ar
    25    13    40    1
    26    14    15   ar
    27    14    41    1
    28    15    16    1
    29    17    18    2
    30    17    19    2
    31    17    20    1
    32    20    21    1
    33    20    30    1
    34    20    22    1
    35    22    23    1
    36    22    42    1
    37    22    43    1
    38    23    24    1
    39    23    44    1
    40    23    45    1
    41    24    25    1
    42    24    46    1
    43    24    47    1
    44    25    30   ar
    45    25    26   ar
    46    26    27   ar
    47    26    48    1
    48    27    28   ar
    49    27    49    1
    50    28    29   ar
    51    28    50    1
    52    29    30   ar
    53    29    51    1
@<TRIPOS>SUBSTRUCTURE
     1 ZINC000550011575        1 TEMP              0 ****  ****    0 ROOT


##########                                Name:    ZINC001408567397
##########                DOCK_Rotatable_Bonds:                   9
##########                         Heavy_Atoms:                  24
##########                    Molecular_Weight:             336.434
##########                DOCK_Rotatable_Bonds:                   9
##########                       Formal_Charge:          -0.0199996
##########                     HBond_Acceptors:                   7
##########                        HBond_Donors:                   2
##########                         Heavy_Atoms:                  24
##########                          Grid_Score:          -34.573853
##########                     Grid_vdw_energy:          -31.254951
##########                      Grid_es_energy:           -3.318902
##########           Internal_energy_repulsive:           16.905643

@<TRIPOS>MOLECULE
ZINC001408567397
 52 53 1 0 0
SMALL
USER_CHARGES


@<TRIPOS>ATOM
      1 C1          0.0395    3.9191   51.2205 C.3     1  ZINC001408567397   -0.0800
      2 C2          0.2918    2.5206   50.7189 C.2     1  ZINC001408567397    0.0900
      3 N3          1.2453    1.7210   51.1228 N.2     1  ZINC001408567397   -0.2900
      4 N4          1.1370    0.5176   50.4140 N.pl3   1  ZINC001408567397   -0.4700
      5 C5          0.0871    0.6240   49.5728 C.2     1  ZINC001408567397    0.1100
      6 C6         -0.3967   -0.4359   48.6172 C.3     1  ZINC001408567397   -0.1000
      7 C7         -0.4568    1.8511   49.7453 C.2     1  ZINC001408567397   -0.2200
      8 C8         -1.6522    2.4021   49.0117 C.3     1  ZINC001408567397   -0.0600
      9 C9         -2.8877    2.2176   49.8546 C.2     1  ZINC001408567397    0.5100
     10 O10        -3.3501    1.1084   50.0183 O.2     1  ZINC001408567397   -0.5300
     11 N11        -3.4789    3.2852   50.4267 N.am    1  ZINC001408567397   -0.7300
     12 C12        -4.6790    3.1057   51.2475 C.3     1  ZINC001408567397    0.1100
     13 C13        -5.8603    2.7338   50.3493 C.3     1  ZINC001408567397    0.1000
     14 N14        -7.1110    2.8992   51.0940 N.am    1  ZINC001408567397   -0.6200
     15 C15        -7.7945    4.1950   51.0993 C.3     1  ZINC001408567397    0.0700
     16 C16        -7.6329    1.8592   51.7742 C.2     1  ZINC001408567397    0.5100
     17 O17        -7.0663    0.7870   51.7710 O.2     1  ZINC001408567397   -0.5300
     18 C18        -8.9204    2.0289   52.5388 C.3     1  ZINC001408567397   -0.1300
     19 C19        -9.4260    0.6594   52.9966 C.3     1  ZINC001408567397   -0.1100
     20 H20        -9.0750   -0.1078   52.3064 H       1  ZINC001408567397    0.0900
     21 C21        -8.8979    0.3627   54.4034 C.3     1  ZINC001408567397   -0.1200
     22 C22        -9.4731   -0.9740   54.8814 C.3     1  ZINC001408567397   -0.1600
     23 C23       -11.0019   -0.9080   54.8368 C.3     1  ZINC001408567397    0.0600
     24 O24       -11.4254   -0.5984   53.5076 O.3     1  ZINC001408567397   -0.3800
     25 C25       -10.9567    0.6618   53.0232 C.3     1  ZINC001408567397    0.0600
     26 H26        -0.6386    3.8825   52.0732 H       1  ZINC001408567397    0.0800
     27 H27         0.9830    4.3713   51.5260 H       1  ZINC001408567397    0.0700
     28 H28        -0.4085    4.5151   50.4254 H       1  ZINC001408567397    0.0800
     29 H29         1.7147   -0.2556   50.5107 H       1  ZINC001408567397    0.4400
     30 H30        -1.1344   -1.0649   49.1153 H       1  ZINC001408567397    0.0800
     31 H31        -0.8517    0.0389   47.7479 H       1  ZINC001408567397    0.0900
     32 H32         0.4461   -1.0485   48.2970 H       1  ZINC001408567397    0.0700
     33 H33        -1.5010    3.4636   48.8162 H       1  ZINC001408567397    0.1000
     34 H34        -1.7746    1.8724   48.0669 H       1  ZINC001408567397    0.1000
     35 H35        -3.1099    4.1725   50.2948 H       1  ZINC001408567397    0.4000
     36 H36        -4.5082    2.3090   51.9716 H       1  ZINC001408567397    0.0700
     37 H37        -4.9010    4.0338   51.7743 H       1  ZINC001408567397    0.0700
     38 H38        -5.8700    3.3835   49.4742 H       1  ZINC001408567397    0.0800
     39 H39        -5.7619    1.6962   50.0304 H       1  ZINC001408567397    0.0900
     40 H40        -8.4971    4.2387   50.2672 H       1  ZINC001408567397    0.0600
     41 H41        -8.3351    4.3168   52.0380 H       1  ZINC001408567397    0.0800
     42 H42        -7.0599    4.9937   50.9970 H       1  ZINC001408567397    0.0800
     43 H43        -8.7455    2.6612   53.4092 H       1  ZINC001408567397    0.1000
     44 H44        -9.6665    2.4950   51.8951 H       1  ZINC001408567397    0.1000
     45 H45        -7.8097    0.3037   54.3794 H       1  ZINC001408567397    0.0700
     46 H46        -9.2063    1.1565   55.0836 H       1  ZINC001408567397    0.0600
     47 H47        -9.1239   -1.7749   54.2296 H       1  ZINC001408567397    0.0700
     48 H48        -9.1465   -1.1666   55.9034 H       1  ZINC001408567397    0.0700
     49 H49       -11.4162   -1.8710   55.1352 H       1  ZINC001408567397    0.0900
     50 H50       -11.3524   -0.1340   55.5195 H       1  ZINC001408567397    0.0500
     51 H51       -11.3061    1.4571   53.6817 H       1  ZINC001408567397    0.0400
     52 H52       -11.3390    0.8292   52.0162 H       1  ZINC001408567397    0.1100
@<TRIPOS>BOND
     1     1     2    1
     2     1    26    1
     3     1    27    1
     4     1    28    1
     5     2     7    1
     6     2     3    2
     7     3     4    1
     8     4     5    1
     9     4    29    1
    10     5     6    1
    11     5     7    2
    12     6    30    1
    13     6    31    1
    14     6    32    1
    15     7     8    1
    16     8     9    1
    17     8    33    1
    18     8    34    1
    19     9    10    2
    20     9    11   am
    21    11    12    1
    22    11    35    1
    23    12    13    1
    24    12    36    1
    25    12    37    1
    26    13    14    1
    27    13    38    1
    28    13    39    1
    29    14    15    1
    30    14    16   am
    31    15    40    1
    32    15    41    1
    33    15    42    1
    34    16    17    2
    35    16    18    1
    36    18    19    1
    37    18    43    1
    38    18    44    1
    39    19    20    1
    40    19    25    1
    41    19    21    1
    42    21    22    1
    43    21    45    1
    44    21    46    1
    45    22    23    1
    46    22    47    1
    47    22    48    1
    48    23    24    1
    49    23    49    1
    50    23    50    1
    51    24    25    1
    52    25    51    1
    53    25    52    1
@<TRIPOS>SUBSTRUCTURE
     1 ZINC001408567397        1 TEMP              0 ****  ****    0 ROOT


##########                                Name:    ZINC000193795672
##########                DOCK_Rotatable_Bonds:                  10
##########                         Heavy_Atoms:                  23
##########                    Molecular_Weight:              332.47
##########                DOCK_Rotatable_Bonds:                  10
##########                       Formal_Charge:        -2.98023e-07
##########                     HBond_Acceptors:                   6
##########                        HBond_Donors:                   3
##########                         Heavy_Atoms:                  23
##########                          Grid_Score:          -34.552490
##########                     Grid_vdw_energy:          -34.151905
##########                      Grid_es_energy:           -0.400586
##########           Internal_energy_repulsive:            9.094331

@<TRIPOS>MOLECULE
ZINC000193795672
 47 48 1 0 0
SMALL
USER_CHARGES


@<TRIPOS>ATOM
      1 C1          0.1361   -0.6759   47.4150 C.3     1  <0>        -0.1000
      2 C2         -1.0174    0.2168   47.7941 C.ar    1  <0>        -0.2000
      3 C3         -1.6635    0.9761   46.8279 C.ar    1  <0>        -0.0300
      4 C4         -2.7180    1.7821   47.2179 C.ar    1  <0>        -0.2400
      5 C5         -3.0932    1.8044   48.5570 C.ar    1  <0>         0.4000
      6 N6         -4.1510    2.6098   48.9627 N.pl3   1  <0>        -0.7300
      7 C7         -4.5317    2.6622   50.3764 C.3     1  <0>         0.1300
      8 C8         -5.6152    1.6177   50.6518 C.3     1  <0>        -0.1400
      9 C9         -5.9981    1.6584   52.1326 C.3     1  <0>         0.1400
     10 N10        -7.0490    0.6713   52.3926 N.am    1  <0>        -0.7500
     11 C11        -7.7303    0.7026   53.5550 C.2     1  <0>         0.7100
     12 O12        -7.4738    1.5511   54.3873 O.2     1  <0>        -0.5900
     13 N13        -8.6959   -0.2064   53.7949 N.am    1  <0>        -0.7400
     14 C14        -9.4352   -0.1735   55.0592 C.3     1  <0>         0.1700
     15 H15        -8.7481    0.0462   55.8763 H       1  <0>         0.0900
     16 C16       -10.5118    0.9117   54.9924 C.3     1  <0>        -0.1700
     17 C17       -10.0955   -1.5327   55.2995 C.3     1  <0>        -0.0600
     18 C18       -10.2047   -1.7830   56.7816 C.2     1  <0>        -0.1700
     19 C19       -10.3686   -2.9788   57.3494 C.2     1  <0>        -0.1400
     20 C20       -10.4423   -2.9629   58.7316 C.2     1  <0>        -0.1300
     21 C21       -10.3381   -1.7542   59.2863 C.2     1  <0>        -0.2100
     22 S22       -10.1279   -0.5439   58.0275 S.3     1  <0>         0.0900
     23 N23        -2.4519    1.0650   49.4489 N.ar    1  <0>        -0.5400
     24 C24        -1.4459    0.2835   49.1049 C.ar    1  <0>         0.1500
     25 H25        -0.2410   -1.6634   47.1487 H       1  <0>         0.0700
     26 H26         0.6632   -0.2464   46.5631 H       1  <0>         0.0600
     27 H27         0.8203   -0.7638   48.2590 H       1  <0>         0.0700
     28 H28        -1.3496    0.9387   45.7952 H       1  <0>         0.1300
     29 H29        -3.2426    2.3862   46.4923 H       1  <0>         0.1300
     30 H30        -4.6372    3.1373   48.3096 H       1  <0>         0.4000
     31 H31        -3.6594    2.4528   50.9955 H       1  <0>         0.0700
     32 H32        -4.9153    3.6547   50.6128 H       1  <0>         0.0700
     33 H33        -6.4930    1.8356   50.0435 H       1  <0>         0.0800
     34 H34        -5.2366    0.6267   50.4016 H       1  <0>         0.0800
     35 H35        -5.1236    1.4267   52.7405 H       1  <0>         0.0700
     36 H36        -6.3636    2.6535   52.3862 H       1  <0>         0.0700
     37 H37        -7.2545   -0.0048   51.7281 H       1  <0>         0.4000
     38 H38        -8.9013   -0.8827   53.1304 H       1  <0>         0.3900
     39 H39       -11.1989    0.6920   54.1753 H       1  <0>         0.0600
     40 H40       -11.0618    0.9362   55.9331 H       1  <0>         0.0700
     41 H41       -10.0414    1.8799   54.8212 H       1  <0>         0.0700
     42 H42       -11.0911   -1.5364   54.8560 H       1  <0>         0.1000
     43 H43        -9.4911   -2.3161   54.8423 H       1  <0>         0.0800
     44 H44       -10.4388   -3.8902   56.7744 H       1  <0>         0.1400
     45 H45       -10.5743   -3.8611   59.3167 H       1  <0>         0.1400
     46 H46       -10.3738   -1.5504   60.3462 H       1  <0>         0.1600
     47 H47        -0.9463   -0.3056   49.8597 H       1  <0>         0.1500
@<TRIPOS>BOND
     1     1     2    1
     2     1    25    1
     3     1    26    1
     4     1    27    1
     5     2    24   ar
     6     2     3   ar
     7     3     4   ar
     8     3    28    1
     9     4     5   ar
    10     4    29    1
    11     5     6    1
    12     5    23   ar
    13     6     7    1
    14     6    30    1
    15     7     8    1
    16     7    31    1
    17     7    32    1
    18     8     9    1
    19     8    33    1
    20     8    34    1
    21     9    10    1
    22     9    35    1
    23     9    36    1
    24    10    11   am
    25    10    37    1
    26    11    12    2
    27    11    13   am
    28    13    14    1
    29    13    38    1
    30    14    15    1
    31    14    16    1
    32    14    17    1
    33    16    39    1
    34    16    40    1
    35    16    41    1
    36    17    18    1
    37    17    42    1
    38    17    43    1
    39    18    22    1
    40    18    19    2
    41    19    20    1
    42    19    44    1
    43    20    21    2
    44    20    45    1
    45    21    22    1
    46    21    46    1
    47    23    24   ar
    48    24    47    1
@<TRIPOS>SUBSTRUCTURE
     1 <0>         1 TEMP              0 ****  ****    0 ROOT


##########                                Name:    ZINC000914736341
##########                DOCK_Rotatable_Bonds:                   7
##########                         Heavy_Atoms:                  27
##########                    Molecular_Weight:             384.905
##########                DOCK_Rotatable_Bonds:                   7
##########                       Formal_Charge:                0.02
##########                     HBond_Acceptors:                   5
##########                        HBond_Donors:                   1
##########                         Heavy_Atoms:                  27
##########                          Grid_Score:          -34.544399
##########                     Grid_vdw_energy:          -34.275333
##########                      Grid_es_energy:           -0.269066
##########           Internal_energy_repulsive:           24.969049

@<TRIPOS>MOLECULE
ZINC000914736341
 52 54 1 0 0
SMALL
USER_CHARGES


@<TRIPOS>ATOM
      1 C1         -7.1429    0.1739   52.3382 C.3     1  ZINC000914736341   -0.1400
      2 C2         -7.5020    1.6548   52.4759 C.3     1  ZINC000914736341   -0.0300
      3 C3         -6.9303    2.1985   53.7868 C.3     1  ZINC000914736341   -0.1400
      4 C4         -6.9109    2.4343   51.2996 C.3     1  ZINC000914736341    0.1300
      5 N5         -5.4667    2.1977   51.2333 N.am    1  ZINC000914736341   -0.7200
      6 C6         -4.7989    2.4235   50.0846 C.2     1  ZINC000914736341    0.5300
      7 O7         -5.3937    2.8212   49.1054 O.2     1  ZINC000914736341   -0.5300
      8 C8         -3.3129    2.1818   50.0169 C.3     1  ZINC000914736341   -0.1200
      9 H9         -3.0239    1.3567   50.6677 H       1  ZINC000914736341    0.1200
     10 C10        -2.5268    3.4659   50.3691 C.3     1  ZINC000914736341   -0.1400
     11 C11        -1.3314    3.4350   49.4425 C.2     1  ZINC000914736341    0.5200
     12 O12        -0.3279    4.1021   49.5808 O.2     1  ZINC000914736341   -0.5200
     13 N13        -1.5430    2.5604   48.4439 N.am    1  ZINC000914736341   -0.6100
     14 C14        -0.5820    2.2782   47.3748 C.3     1  ZINC000914736341    0.1600
     15 C15        -0.9613    0.9934   46.6846 C.ar    1  ZINC000914736341   -0.1000
     16 C16        -1.5811    1.0292   45.4499 C.ar    1  ZINC000914736341   -0.0800
     17 C17        -1.9292   -0.1495   44.8165 C.ar    1  ZINC000914736341   -0.1100
     18 C18        -1.6580   -1.3641   45.4178 C.ar    1  ZINC000914736341   -0.1000
     19 C19        -1.0380   -1.4011   46.6528 C.ar    1  ZINC000914736341   -0.1100
     20 C20        -0.6839   -0.2223   47.2842 C.ar    1  ZINC000914736341   -0.0300
     21 Cl21        0.0947   -0.2680   48.8352 Cl      1  ZINC000914736341   -0.0600
     22 C22        -2.8605    1.9235   48.5626 C.3     1  ZINC000914736341    0.1000
     23 C23        -9.0010    1.8101   52.4790 C.ar    1  ZINC000914736341   -0.0700
     24 C24        -9.7979    0.8143   53.0118 C.ar    1  ZINC000914736341   -0.1200
     25 C25       -11.1729    0.9568   53.0146 C.ar    1  ZINC000914736341   -0.1200
     26 C26       -11.7509    2.0953   52.4847 C.ar    1  ZINC000914736341   -0.1200
     27 C27       -10.9538    3.0915   51.9527 C.ar    1  ZINC000914736341   -0.1200
     28 C28        -9.5787    2.9509   51.9538 C.ar    1  ZINC000914736341   -0.1100
     29 H29        -7.5639   -0.3815   53.1763 H       1  ZINC000914736341    0.0600
     30 H30        -7.5502   -0.2134   51.4044 H       1  ZINC000914736341    0.0600
     31 H31        -6.0587    0.0616   52.3360 H       1  ZINC000914736341    0.0600
     32 H32        -5.8461    2.0862   53.7846 H       1  ZINC000914736341    0.0600
     33 H33        -7.1860    3.2535   53.8849 H       1  ZINC000914736341    0.0600
     34 H34        -7.3513    1.6431   54.6249 H       1  ZINC000914736341    0.0600
     35 H35        -7.3767    2.1012   50.3721 H       1  ZINC000914736341    0.0700
     36 H36        -7.0986    3.4991   51.4383 H       1  ZINC000914736341    0.0700
     37 H37        -4.9911    1.8785   52.0161 H       1  ZINC000914736341    0.4000
     38 H38        -3.1349    4.3501   50.1779 H       1  ZINC000914736341    0.1100
     39 H39        -2.2035    3.4419   51.4098 H       1  ZINC000914736341    0.1100
     40 H40        -0.5914    3.0950   46.6529 H       1  ZINC000914736341    0.1000
     41 H41         0.4168    2.1809   47.8004 H       1  ZINC000914736341    0.1000
     42 H42        -1.7939    1.9779   44.9799 H       1  ZINC000914736341    0.1400
     43 H43        -2.4135   -0.1211   43.8516 H       1  ZINC000914736341    0.1300
     44 H44        -1.9308   -2.2845   44.9229 H       1  ZINC000914736341    0.1300
     45 H45        -0.8261   -2.3502   47.1226 H       1  ZINC000914736341    0.1400
     46 H46        -2.7798    0.8526   48.3762 H       1  ZINC000914736341    0.1000
     47 H47        -3.5631    2.3770   47.8634 H       1  ZINC000914736341    0.0900
     48 H48        -9.3464   -0.0751   53.4258 H       1  ZINC000914736341    0.1300
     49 H49       -11.7956    0.1784   53.4303 H       1  ZINC000914736341    0.1200
     50 H50       -12.8252    2.2062   52.4863 H       1  ZINC000914736341    0.1200
     51 H51       -11.4054    3.9808   51.5385 H       1  ZINC000914736341    0.1200
     52 H52        -8.9560    3.7293   51.5382 H       1  ZINC000914736341    0.1200
@<TRIPOS>BOND
     1     1     2    1
     2     1    29    1
     3     1    30    1
     4     1    31    1
     5     2     3    1
     6     2     4    1
     7     2    23    1
     8     3    32    1
     9     3    33    1
    10     3    34    1
    11     4     5    1
    12     4    35    1
    13     4    36    1
    14     5     6   am
    15     5    37    1
    16     6     7    2
    17     6     8    1
    18     8     9    1
    19     8    22    1
    20     8    10    1
    21    10    11    1
    22    10    38    1
    23    10    39    1
    24    11    12    2
    25    11    13   am
    26    13    14    1
    27    13    22    1
    28    14    15    1
    29    14    40    1
    30    14    41    1
    31    15    20   ar
    32    15    16   ar
    33    16    17   ar
    34    16    42    1
    35    17    18   ar
    36    17    43    1
    37    18    19   ar
    38    18    44    1
    39    19    20   ar
    40    19    45    1
    41    20    21    1
    42    22    46    1
    43    22    47    1
    44    23    28   ar
    45    23    24   ar
    46    24    25   ar
    47    24    48    1
    48    25    26   ar
    49    25    49    1
    50    26    27   ar
    51    26    50    1
    52    27    28   ar
    53    27    51    1
    54    28    52    1
@<TRIPOS>SUBSTRUCTURE
     1 ZINC000914736341        1 TEMP              0 ****  ****    0 ROOT


##########                                Name:    ZINC000555499135
##########                DOCK_Rotatable_Bonds:                   8
##########                         Heavy_Atoms:                  26
##########                    Molecular_Weight:             377.554
##########                DOCK_Rotatable_Bonds:                   8
##########                       Formal_Charge:           0.0399999
##########                     HBond_Acceptors:                   7
##########                        HBond_Donors:                   0
##########                         Heavy_Atoms:                  26
##########                          Grid_Score:          -34.530518
##########                     Grid_vdw_energy:          -33.963306
##########                      Grid_es_energy:           -0.567210
##########           Internal_energy_repulsive:           18.558693

@<TRIPOS>MOLECULE
ZINC000555499135
 57 59 1 0 0
SMALL
USER_CHARGES


@<TRIPOS>ATOM
      1 C1        -10.4610    0.0798   53.1367 C.3     1  ZINC000555499135   -0.1500
      2 C2         -9.3032   -0.8833   52.8664 C.3     1  ZINC000555499135   -0.0500
      3 C3         -8.0717   -0.0972   52.4973 C.2     1  ZINC000555499135   -0.2100
      4 C4         -7.0638   -0.5280   51.7328 C.2     1  ZINC000555499135    0.0300
      5 N5         -6.0976    0.3506   51.5561 N.2     1  ZINC000555499135   -0.4500
      6 C6         -6.2345    1.4986   52.1289 C.2     1  ZINC000555499135    0.0400
      7 C7         -5.2410    2.6286   52.0446 C.3     1  ZINC000555499135    0.1500
      8 N8         -4.5012    2.5367   50.7789 N.3     1  ZINC000555499135   -0.4500
      9 C9         -5.3801    2.8109   49.6342 C.3     1  ZINC000555499135    0.0100
     10 C10        -3.4073    3.3876   50.7800 C.2     1  ZINC000555499135    0.3500
     11 N11        -3.4171    4.6701   51.0573 N.2     1  ZINC000555499135   -0.3100
     12 N12        -2.2271    5.1464   50.9628 N.2     1  ZINC000555499135   -0.2900
     13 C13        -1.3943    4.2038   50.6224 C.2     1  ZINC000555499135    0.2100
     14 C14         0.0898    4.3568   50.4106 C.3     1  ZINC000555499135   -0.0300
     15 C15         0.8368    3.8388   51.6413 C.3     1  ZINC000555499135   -0.0900
     16 C16         2.3426    4.0134   51.4349 C.3     1  ZINC000555499135   -0.1500
     17 C17         0.3961    4.6288   52.8753 C.3     1  ZINC000555499135   -0.1500
     18 N18        -2.1157    3.0488   50.4989 N.pl3   1  ZINC000555499135   -0.4600
     19 C19        -1.6087    1.7242   50.1323 C.3     1  ZINC000555499135    0.1100
     20 C20        -1.1869    1.7285   48.6617 C.3     1  ZINC000555499135    0.0700
     21 H21        -0.5392    2.5844   48.4718 H       1  ZINC000555499135    0.0700
     22 C22        -2.4308    1.8229   47.7741 C.3     1  ZINC000555499135   -0.1500
     23 C23        -2.0048    1.7662   46.3038 C.3     1  ZINC000555499135   -0.1200
     24 C24        -1.2146    0.4765   46.0620 C.3     1  ZINC000555499135   -0.1600
     25 C25        -0.0177    0.4341   47.0157 C.3     1  ZINC000555499135    0.0600
     26 O26        -0.4815    0.5219   48.3644 O.3     1  ZINC000555499135   -0.3700
     27 S27        -7.7099    1.5550   52.9912 S.3     1  ZINC000555499135    0.1200
     28 H28       -10.1954    0.7457   53.9578 H       1  ZINC000555499135    0.0600
     29 H29       -10.6606    0.6684   52.2413 H       1  ZINC000555499135    0.0600
     30 H30       -11.3518   -0.4888   53.4038 H       1  ZINC000555499135    0.0700
     31 H31        -9.1038   -1.4720   53.7618 H       1  ZINC000555499135    0.0900
     32 H32        -9.5689   -1.5493   52.0454 H       1  ZINC000555499135    0.0800
     33 H33        -7.0427   -1.5153   51.2957 H       1  ZINC000555499135    0.1800
     34 H34        -5.7693    3.5810   52.0884 H       1  ZINC000555499135    0.0800
     35 H35        -4.5429    2.5617   52.8791 H       1  ZINC000555499135    0.1200
     36 H36        -5.6976    3.8533   49.6614 H       1  ZINC000555499135    0.0500
     37 H37        -4.8397    2.6197   48.7071 H       1  ZINC000555499135    0.0800
     38 H38        -6.2553    2.1631   49.6849 H       1  ZINC000555499135    0.0900
     39 H39         0.3926    3.7841   49.5340 H       1  ZINC000555499135    0.1000
     40 H40         0.3283    5.4093   50.2571 H       1  ZINC000555499135    0.1000
     41 H41         0.6099    2.7825   51.7859 H       1  ZINC000555499135    0.0800
     42 H42         2.6497    3.4835   50.5333 H       1  ZINC000555499135    0.0500
     43 H43         2.5745    5.0734   51.3301 H       1  ZINC000555499135    0.0600
     44 H44         2.8766    3.6079   52.2943 H       1  ZINC000555499135    0.0600
     45 H45        -0.6768    4.5043   53.0223 H       1  ZINC000555499135    0.0600
     46 H46         0.9282    4.2597   53.7521 H       1  ZINC000555499135    0.0600
     47 H47         0.6229    5.6851   52.7305 H       1  ZINC000555499135    0.0600
     48 H48        -0.7491    1.4788   50.7560 H       1  ZINC000555499135    0.1100
     49 H49        -2.3914    0.9808   50.2836 H       1  ZINC000555499135    0.1200
     50 H50        -3.0981    0.9892   47.9925 H       1  ZINC000555499135    0.0800
     51 H51        -2.9461    2.7636   47.9680 H       1  ZINC000555499135    0.0800
     52 H52        -2.8896    1.7765   45.6672 H       1  ZINC000555499135    0.0700
     53 H53        -1.3775    2.6270   46.0724 H       1  ZINC000555499135    0.0600
     54 H54        -1.8574   -0.3844   46.2458 H       1  ZINC000555499135    0.0700
     55 H55        -0.8601    0.4542   45.0315 H       1  ZINC000555499135    0.0800
     56 H56         0.5240   -0.5016   46.8777 H       1  ZINC000555499135    0.1000
     57 H57         0.6454    1.2730   46.8042 H       1  ZINC000555499135    0.0500
@<TRIPOS>BOND
     1     1     2    1
     2     1    28    1
     3     1    29    1
     4     1    30    1
     5     2     3    1
     6     2    31    1
     7     2    32    1
     8     3    27    1
     9     3     4    2
    10     4     5    1
    11     4    33    1
    12     5     6    2
    13     6     7    1
    14     6    27    1
    15     7     8    1
    16     7    34    1
    17     7    35    1
    18     8     9    1
    19     8    10    1
    20     9    36    1
    21     9    37    1
    22     9    38    1
    23    10    18    1
    24    10    11    2
    25    11    12    1
    26    12    13    2
    27    13    14    1
    28    13    18    1
    29    14    15    1
    30    14    39    1
    31    14    40    1
    32    15    16    1
    33    15    17    1
    34    15    41    1
    35    16    42    1
    36    16    43    1
    37    16    44    1
    38    17    45    1
    39    17    46    1
    40    17    47    1
    41    18    19    1
    42    19    20    1
    43    19    48    1
    44    19    49    1
    45    20    21    1
    46    20    26    1
    47    20    22    1
    48    22    23    1
    49    22    50    1
    50    22    51    1
    51    23    24    1
    52    23    52    1
    53    23    53    1
    54    24    25    1
    55    24    54    1
    56    24    55    1
    57    25    26    1
    58    25    56    1
    59    25    57    1
@<TRIPOS>SUBSTRUCTURE
     1 ZINC000555499135        1 TEMP              0 ****  ****    0 ROOT


##########                                Name:    ZINC000573650873
##########                DOCK_Rotatable_Bonds:                  10
##########                         Heavy_Atoms:                  28
##########                    Molecular_Weight:             418.843
##########                DOCK_Rotatable_Bonds:                  10
##########                       Formal_Charge:          -0.0500001
##########                     HBond_Acceptors:                   9
##########                        HBond_Donors:                   1
##########                         Heavy_Atoms:                  28
##########                          Grid_Score:          -34.522949
##########                     Grid_vdw_energy:          -33.970306
##########                      Grid_es_energy:           -0.552642
##########           Internal_energy_repulsive:           13.229427

@<TRIPOS>MOLECULE
ZINC000573650873
 50 51 1 0 0
SMALL
USER_CHARGES


@<TRIPOS>ATOM
      1 C1         -0.5746    0.1042   46.5407 C.3     1  ZINC000573650873   -0.1400
      2 C2         -0.4585    0.2678   48.0575 C.3     1  ZINC000573650873    0.0100
      3 C3         -0.6781   -1.0865   48.7348 C.3     1  ZINC000573650873   -0.1400
      4 C4          0.9349    0.7935   48.4086 C.3     1  ZINC000573650873   -0.1500
      5 C5         -1.5000    1.2448   48.5387 C.2     1  ZINC000573650873   -0.0100
      6 C6         -1.4042    2.0654   49.6104 C.2     1  ZINC000573650873   -0.1800
      7 C7         -2.6425    2.7658   49.6170 C.2     1  ZINC000573650873   -0.0300
      8 C8         -3.0758    3.8012   50.5867 C.2     1  ZINC000573650873    0.6000
      9 O9         -2.5789    4.9094   50.5547 O.2     1  ZINC000573650873   -0.5100
     10 N10        -4.0208    3.5126   51.5034 N.am    1  ZINC000573650873   -0.5900
     11 C11        -4.6200    2.1763   51.5421 C.3     1  ZINC000573650873    0.1200
     12 C12        -5.9243    2.1789   50.7421 C.3     1  ZINC000573650873   -0.1000
     13 C13        -6.9615    1.3631   51.4697 C.ar    1  ZINC000573650873   -0.0800
     14 C14        -6.8922   -0.0175   51.4513 C.ar    1  ZINC000573650873   -0.1000
     15 C15        -7.8433   -0.7665   52.1185 C.ar    1  ZINC000573650873   -0.1100
     16 C16        -8.8646   -0.1342   52.8048 C.ar    1  ZINC000573650873   -0.0400
     17 Cl17      -10.0592   -1.0741   53.6435 Cl      1  ZINC000573650873   -0.0700
     18 C18        -8.9334    1.2476   52.8229 C.ar    1  ZINC000573650873   -0.1100
     19 C19        -7.9786    1.9954   52.1600 C.ar    1  ZINC000573650873   -0.1000
     20 C20        -4.4488    4.5353   52.4611 C.3     1  ZINC000573650873    0.0700
     21 C21        -3.6694    4.3690   53.7672 C.3     1  ZINC000573650873    0.0600
     22 H22        -3.8626    3.3798   54.1822 H       1  ZINC000573650873    0.1400
     23 O23        -2.2712    4.5125   53.5090 O.3     1  ZINC000573650873   -0.5200
     24 C24        -4.1158    5.4376   54.7670 C.3     1  ZINC000573650873    0.4300
     25 F25        -5.4846    5.2971   55.0197 F       1  ZINC000573650873   -0.1700
     26 F26        -3.4032    5.2856   55.9612 F       1  ZINC000573650873   -0.1700
     27 F27        -3.8678    6.7073   54.2344 F       1  ZINC000573650873   -0.1800
     28 N28        -3.3225    2.3122   48.5935 N.2     1  ZINC000573650873   -0.3400
     29 O29        -2.6988    1.4740   47.9851 O.3     1  ZINC000573650873    0.1300
     30 H30        -1.5672   -0.2704   46.2906 H       1  ZINC000573650873    0.0600
     31 H31        -0.4181    1.0690   46.0582 H       1  ZINC000573650873    0.0600
     32 H32         0.1788   -0.6024   46.1927 H       1  ZINC000573650873    0.0700
     33 H33         0.0752   -1.7932   48.3868 H       1  ZINC000573650873    0.0700
     34 H34        -0.5953   -0.9699   49.8154 H       1  ZINC000573650873    0.0600
     35 H35        -1.6707   -1.4611   48.4847 H       1  ZINC000573650873    0.0600
     36 H36         1.0914    1.7583   47.9261 H       1  ZINC000573650873    0.0600
     37 H37         1.0176    0.9101   49.4891 H       1  ZINC000573650873    0.0600
     38 H38         1.6882    0.0868   48.0605 H       1  ZINC000573650873    0.0700
     39 H39        -0.5794    2.1653   50.3005 H       1  ZINC000573650873    0.1800
     40 H40        -3.9283    1.4552   51.1067 H       1  ZINC000573650873    0.0900
     41 H41        -4.8285    1.9014   52.5760 H       1  ZINC000573650873    0.1000
     42 H42        -6.2801    3.2032   50.6308 H       1  ZINC000573650873    0.0800
     43 H43        -5.7473    1.7468   49.7572 H       1  ZINC000573650873    0.0800
     44 H44        -6.0950   -0.5110   50.9152 H       1  ZINC000573650873    0.1300
     45 H45        -7.7893   -1.8450   52.1037 H       1  ZINC000573650873    0.1300
     46 H46        -9.7307    1.7418   53.3582 H       1  ZINC000573650873    0.1300
     47 H47        -8.0320    3.0741   52.1743 H       1  ZINC000573650873    0.1300
     48 H48        -4.2562    5.5247   52.0465 H       1  ZINC000573650873    0.1000
     49 H49        -5.5153    4.4251   52.6579 H       1  ZINC000573650873    0.1200
     50 H50        -1.7164    4.4436   54.2981 H       1  ZINC000573650873    0.3900
@<TRIPOS>BOND
     1     1     2    1
     2     1    30    1
     3     1    31    1
     4     1    32    1
     5     2     3    1
     6     2     4    1
     7     2     5    1
     8     3    33    1
     9     3    34    1
    10     3    35    1
    11     4    36    1
    12     4    37    1
    13     4    38    1
    14     5    29    1
    15     5     6    2
    16     6     7    1
    17     6    39    1
    18     7     8    1
    19     7    28    2
    20     8     9    2
    21     8    10   am
    22    10    11    1
    23    10    20    1
    24    11    12    1
    25    11    40    1
    26    11    41    1
    27    12    13    1
    28    12    42    1
    29    12    43    1
    30    13    19   ar
    31    13    14   ar
    32    14    15   ar
    33    14    44    1
    34    15    16   ar
    35    15    45    1
    36    16    17    1
    37    16    18   ar
    38    18    19   ar
    39    18    46    1
    40    19    47    1
    41    20    21    1
    42    20    48    1
    43    20    49    1
    44    21    22    1
    45    21    23    1
    46    21    24    1
    47    23    50    1
    48    24    25    1
    49    24    26    1
    50    24    27    1
    51    28    29    1
@<TRIPOS>SUBSTRUCTURE
     1 ZINC000573650873        1 TEMP              0 ****  ****    0 ROOT


##########                                Name:    ZINC000788423111
##########                DOCK_Rotatable_Bonds:                   7
##########                         Heavy_Atoms:                  23
##########                    Molecular_Weight:             399.243
##########                DOCK_Rotatable_Bonds:                   7
##########                       Formal_Charge:         1.04308e-07
##########                     HBond_Acceptors:                   8
##########                        HBond_Donors:                   1
##########                         Heavy_Atoms:                  23
##########                          Grid_Score:          -34.507202
##########                     Grid_vdw_energy:          -34.271481
##########                      Grid_es_energy:           -0.235720
##########           Internal_energy_repulsive:            8.263098

@<TRIPOS>MOLECULE
ZINC000788423111
 35 37 1 0 0
SMALL
USER_CHARGES


@<TRIPOS>ATOM
      1 O1         -6.5732    2.5142   49.7428 O.3     1  ZINC000788423111   -0.5400
      2 C2         -5.4044    2.9258   50.4546 C.3     1  ZINC000788423111    0.1000
      3 H3         -5.1552    3.9513   50.1819 H       1  ZINC000788423111    0.1300
      4 C4         -4.2373    2.0044   50.0947 C.3     1  ZINC000788423111    0.0300
      5 O5         -3.6680    2.4200   48.8515 O.3     1  ZINC000788423111   -0.2900
      6 C6         -2.7311    1.6054   48.2990 C.ar    1  ZINC000788423111    0.1700
      7 C7         -1.9245    0.8235   49.1121 C.ar    1  ZINC000788423111   -0.2400
      8 C8         -0.9709   -0.0052   48.5473 C.ar    1  ZINC000788423111    0.1500
      9 F9         -0.1845   -0.7675   49.3384 F       1  ZINC000788423111   -0.1300
     10 C10        -0.8229   -0.0537   47.1715 C.ar    1  ZINC000788423111   -0.1600
     11 C11        -1.6268    0.7264   46.3598 C.ar    1  ZINC000788423111   -0.0300
     12 Br12       -1.4221    0.6578   44.4811 Br      1  ZINC000788423111   -0.0200
     13 C13        -2.5841    1.5510   46.9203 C.ar    1  ZINC000788423111   -0.1300
     14 C14        -5.6700    2.8484   51.9594 C.3     1  ZINC000788423111    0.1000
     15 N15        -6.5835    1.7375   52.2375 N.pl3   1  ZINC000788423111   -0.1300
     16 N16        -6.4093    0.5187   51.8617 N.2     1  ZINC000788423111   -0.0500
     17 N17        -7.4015   -0.1941   52.2752 N.2     1  ZINC000788423111   -0.2600
     18 C18        -8.2305    0.6255   52.9401 C.2     1  ZINC000788423111    0.2400
     19 C19        -9.5044    0.2540   53.5939 C.2     1  ZINC000788423111   -0.1300
     20 C20       -10.3325    1.1084   54.2260 C.2     1  ZINC000788423111   -0.0800
     21 C21       -11.4642    0.5265   54.7594 C.2     1  ZINC000788423111   -0.1400
     22 C22       -11.5664   -0.7918   54.5683 C.2     1  ZINC000788423111   -0.2000
     23 S23       -10.1761   -1.3702   53.6599 S.3     1  ZINC000788423111    0.1700
     24 N24        -7.6844    1.8265   52.9016 N.2     1  ZINC000788423111   -0.2900
     25 H25        -6.4874    2.5680   48.7811 H       1  ZINC000788423111    0.3800
     26 H26        -3.4794    2.0556   50.8765 H       1  ZINC000788423111    0.0900
     27 H27        -4.5976    0.9797   50.0047 H       1  ZINC000788423111    0.0800
     28 H28        -2.0402    0.8615   50.1853 H       1  ZINC000788423111    0.1500
     29 H29        -0.0786   -0.7011   46.7316 H       1  ZINC000788423111    0.1500
     30 H30        -3.2115    2.1594   46.2859 H       1  ZINC000788423111    0.1500
     31 H31        -4.7298    2.6864   52.4865 H       1  ZINC000788423111    0.1300
     32 H32        -6.1198    3.7820   52.2974 H       1  ZINC000788423111    0.1300
     33 H33       -10.1265    2.1652   54.3090 H       1  ZINC000788423111    0.1500
     34 H34       -12.2121    1.0949   55.2922 H       1  ZINC000788423111    0.1500
     35 H35       -12.3821   -1.4086   54.9156 H       1  ZINC000788423111    0.1700
@<TRIPOS>BOND
     1     1     2    1
     2     1    25    1
     3     2     3    1
     4     2     4    1
     5     2    14    1
     6     4     5    1
     7     4    26    1
     8     4    27    1
     9     5     6    1
    10     6    13   ar
    11     6     7   ar
    12     7     8   ar
    13     7    28    1
    14     8     9    1
    15     8    10   ar
    16    10    11   ar
    17    10    29    1
    18    11    12    1
    19    11    13   ar
    20    13    30    1
    21    14    15    1
    22    14    31    1
    23    14    32    1
    24    15    24    1
    25    15    16    1
    26    16    17    2
    27    17    18    1
    28    18    19    1
    29    18    24    2
    30    19    23    1
    31    19    20    2
    32    20    21    1
    33    20    33    1
    34    21    22    2
    35    21    34    1
    36    22    23    1
    37    22    35    1
@<TRIPOS>SUBSTRUCTURE
     1 ZINC000788423111        1 TEMP              0 ****  ****    0 ROOT


##########                                Name:    ZINC000770850676
##########                DOCK_Rotatable_Bonds:                  13
##########                         Heavy_Atoms:                  30
##########                    Molecular_Weight:             412.486
##########                DOCK_Rotatable_Bonds:                  13
##########                       Formal_Charge:          -0.0299994
##########                     HBond_Acceptors:                   7
##########                        HBond_Donors:                   3
##########                         Heavy_Atoms:                  30
##########                          Grid_Score:          -34.505150
##########                     Grid_vdw_energy:          -34.261368
##########                      Grid_es_energy:           -0.243782
##########           Internal_energy_repulsive:           16.604774

@<TRIPOS>MOLECULE
ZINC000770850676
 58 60 1 0 0
SMALL
USER_CHARGES


@<TRIPOS>ATOM
      1 O1         -7.8946    0.8487   55.4920 O.2     1  ZINC000770850676   -0.5300
      2 C2         -8.3780    1.6963   54.7717 C.2     1  ZINC000770850676    0.5100
      3 N3         -8.2168    3.0018   55.0654 N.am    1  ZINC000770850676   -0.7000
      4 C4         -7.4630    3.3968   56.2578 C.3     1  ZINC000770850676    0.1600
      5 H5         -7.4575    2.5744   56.9731 H       1  ZINC000770850676    0.1000
      6 C6         -8.1216    4.6222   56.8947 C.3     1  ZINC000770850676    0.0600
      7 O7         -9.4982    4.3415   57.1556 O.3     1  ZINC000770850676   -0.5700
      8 C8         -6.0251    3.7384   55.8623 C.3     1  ZINC000770850676   -0.1500
      9 C9         -5.1353    3.7179   57.1068 C.3     1  ZINC000770850676    0.1500
     10 H10        -5.4404    4.5150   57.7847 H       1  ZINC000770850676    0.1100
     11 O11        -5.2661    2.4564   57.7653 O.3     1  ZINC000770850676   -0.5400
     12 C12        -3.6990    3.9259   56.7009 C.ar    1  ZINC000770850676   -0.1200
     13 C13        -2.6843    3.3090   57.4086 C.ar    1  ZINC000770850676   -0.1100
     14 C14        -1.3669    3.4998   57.0363 C.ar    1  ZINC000770850676   -0.1200
     15 C15        -1.0639    4.3071   55.9559 C.ar    1  ZINC000770850676   -0.1200
     16 C16        -2.0785    4.9233   55.2475 C.ar    1  ZINC000770850676   -0.1200
     17 C17        -3.3963    4.7291   55.6173 C.ar    1  ZINC000770850676   -0.1100
     18 C18        -9.1534    1.2900   53.5450 C.3     1  ZINC000770850676    0.1400
     19 H19        -9.2170    2.1290   52.8521 H       1  ZINC000770850676    0.1000
     20 C20       -10.5714    0.8335   53.9479 C.3     1  ZINC000770850676   -0.1200
     21 C21       -10.8347   -0.3634   52.9962 C.3     1  ZINC000770850676   -0.1300
     22 C22        -9.4246   -0.9969   52.8960 C.3     1  ZINC000770850676    0.1000
     23 N23        -8.4936    0.1504   52.8913 N.am    1  ZINC000770850676   -0.5900
     24 C24        -7.2485    0.1495   52.3754 C.2     1  ZINC000770850676    0.6700
     25 O25        -6.8063   -0.8566   51.8571 O.2     1  ZINC000770850676   -0.5600
     26 O26        -6.4948    1.2636   52.4342 O.3     1  ZINC000770850676   -0.3600
     27 C27        -6.6282    2.2083   51.3397 C.3     1  ZINC000770850676    0.1300
     28 C28        -5.2596    2.6329   50.8731 C.ar    1  ZINC000770850676   -0.1000
     29 C29        -4.5752    3.6244   51.5508 C.ar    1  ZINC000770850676   -0.0900
     30 C30        -3.3198    4.0140   51.1228 C.ar    1  ZINC000770850676   -0.1200
     31 C31        -2.7487    3.4117   50.0173 C.ar    1  ZINC000770850676   -0.1100
     32 C32        -3.4328    2.4196   49.3401 C.ar    1  ZINC000770850676   -0.1200
     33 C33        -4.6864    2.0270   49.7707 C.ar    1  ZINC000770850676   -0.0900
     34 H34        -8.6000    3.6799   54.4872 H       1  ZINC000770850676    0.4000
     35 H35        -7.6158    4.8614   57.8302 H       1  ZINC000770850676    0.0500
     36 H36        -8.0464    5.4702   56.2139 H       1  ZINC000770850676    0.0500
     37 H37        -9.6404    3.6234   57.7875 H       1  ZINC000770850676    0.3800
     38 H38        -5.6616    3.0037   55.1437 H       1  ZINC000770850676    0.0800
     39 H39        -5.9979    4.7308   55.4125 H       1  ZINC000770850676    0.0900
     40 H40        -4.7323    2.3741   58.5673 H       1  ZINC000770850676    0.3700
     41 H41        -2.9210    2.6782   58.2527 H       1  ZINC000770850676    0.1200
     42 H42        -0.5741    3.0183   57.5897 H       1  ZINC000770850676    0.1200
     43 H43        -0.0346    4.4568   55.6654 H       1  ZINC000770850676    0.1200
     44 H44        -1.8419    5.5544   54.4037 H       1  ZINC000770850676    0.1200
     45 H45        -4.1890    5.2105   55.0638 H       1  ZINC000770850676    0.1200
     46 H46       -10.5913    0.5102   54.9887 H       1  ZINC000770850676    0.0800
     47 H47       -11.2962    1.6293   53.7763 H       1  ZINC000770850676    0.1000
     48 H48       -11.5466   -1.0623   53.4352 H       1  ZINC000770850676    0.0900
     49 H49       -11.1784   -0.0187   52.0210 H       1  ZINC000770850676    0.0800
     50 H50        -9.2345   -1.6377   53.7570 H       1  ZINC000770850676    0.0700
     51 H51        -9.3289   -1.5651   51.9707 H       1  ZINC000770850676    0.0900
     52 H52        -7.1628    1.7360   50.5153 H       1  ZINC000770850676    0.0800
     53 H53        -7.1836    3.0823   51.6796 H       1  ZINC000770850676    0.0800
     54 H54        -5.0213    4.0949   52.4145 H       1  ZINC000770850676    0.1200
     55 H55        -2.7853    4.7891   51.6519 H       1  ZINC000770850676    0.1300
     56 H56        -1.7681    3.7166   49.6825 H       1  ZINC000770850676    0.1300
     57 H57        -2.9868    1.9494   48.4762 H       1  ZINC000770850676    0.1300
     58 H58        -5.2208    1.2520   49.2416 H       1  ZINC000770850676    0.1200
@<TRIPOS>BOND
     1     1     2    2
     2     2     3   am
     3     2    18    1
     4     3     4    1
     5     3    34    1
     6     4     5    1
     7     4     6    1
     8     4     8    1
     9     6     7    1
    10     6    35    1
    11     6    36    1
    12     7    37    1
    13     8     9    1
    14     8    38    1
    15     8    39    1
    16     9    10    1
    17     9    11    1
    18     9    12    1
    19    11    40    1
    20    12    17   ar
    21    12    13   ar
    22    13    14   ar
    23    13    41    1
    24    14    15   ar
    25    14    42    1
    26    15    16   ar
    27    15    43    1
    28    16    17   ar
    29    16    44    1
    30    17    45    1
    31    18    19    1
    32    18    23    1
    33    18    20    1
    34    20    21    1
    35    20    46    1
    36    20    47    1
    37    21    22    1
    38    21    48    1
    39    21    49    1
    40    22    23    1
    41    22    50    1
    42    22    51    1
    43    23    24   am
    44    24    25    2
    45    24    26    1
    46    26    27    1
    47    27    28    1
    48    27    52    1
    49    27    53    1
    50    28    33   ar
    51    28    29   ar
    52    29    30   ar
    53    29    54    1
    54    30    31   ar
    55    30    55    1
    56    31    32   ar
    57    31    56    1
    58    32    33   ar
    59    32    57    1
    60    33    58    1
@<TRIPOS>SUBSTRUCTURE
     1 ZINC000770850676        1 TEMP              0 ****  ****    0 ROOT


##########                                Name:    ZINC001289445798
##########                DOCK_Rotatable_Bonds:                  10
##########                         Heavy_Atoms:                  25
##########                    Molecular_Weight:             352.434
##########                DOCK_Rotatable_Bonds:                  10
##########                       Formal_Charge:          0.00999932
##########                     HBond_Acceptors:                   8
##########                        HBond_Donors:                   2
##########                         Heavy_Atoms:                  25
##########                          Grid_Score:          -34.492237
##########                     Grid_vdw_energy:          -35.021599
##########                      Grid_es_energy:            0.529360
##########           Internal_energy_repulsive:           26.804777

@<TRIPOS>MOLECULE
ZINC001289445798
 53 54 1 0 0
SMALL
USER_CHARGES


@<TRIPOS>ATOM
      1 C1         -7.3834    5.8580   51.1763 C.3     1  ZINC001289445798   -0.1500
      2 C2         -7.0241    4.3948   50.9108 C.3     1  ZINC001289445798    0.0600
      3 O3         -6.2450    3.8908   51.9976 O.3     1  ZINC001289445798   -0.3700
      4 C4         -5.8536    2.5247   51.8477 C.3     1  ZINC001289445798    0.1100
      5 H5         -5.2914    2.2093   52.7266 H       1  ZINC001289445798    0.0700
      6 C6         -4.9769    2.3792   50.6022 C.3     1  ZINC001289445798   -0.1400
      7 C7         -3.6350    3.0166   50.8552 C.2     1  ZINC001289445798    0.5400
      8 O8         -3.5236    3.8810   51.6986 O.2     1  ZINC001289445798   -0.5200
      9 N9         -2.5587    2.6261   50.1442 N.am    1  ZINC001289445798   -0.6200
     10 C10        -2.5534    1.5999   49.0914 C.3     1  ZINC001289445798    0.1000
     11 C11        -1.1133    1.5122   48.5441 C.3     1  ZINC001289445798    0.1400
     12 H12        -0.5651    0.7042   49.0285 H       1  ZINC001289445798    0.1200
     13 N13        -1.1213    1.3319   47.0903 N.am    1  ZINC001289445798   -0.7200
     14 C14        -1.2508    0.0974   46.5652 C.2     1  ZINC001289445798    0.6000
     15 O15        -1.3596   -0.8671   47.2982 O.2     1  ZINC001289445798   -0.5100
     16 C16        -1.2607   -0.0837   45.1047 C.2     1  ZINC001289445798   -0.0500
     17 C17        -0.8030    0.8115   44.1535 C.2     1  ZINC001289445798   -0.1400
     18 C18        -1.0262    0.1900   42.9228 C.2     1  ZINC001289445798    0.0000
     19 N19        -1.5720   -0.9764   43.1553 N.2     1  ZINC001289445798   -0.2700
     20 N20        -1.7179   -1.1715   44.4164 N.pl3   1  ZINC001289445798   -0.3800
     21 C21        -0.5116    2.8902   48.9268 C.3     1  ZINC001289445798    0.0700
     22 H22        -0.7859    3.6524   48.1976 H       1  ZINC001289445798    0.0900
     23 O23         0.9081    2.8079   49.0681 O.3     1  ZINC001289445798   -0.3700
     24 C24         1.5717    4.0723   49.0149 C.3     1  ZINC001289445798    0.0300
     25 C25        -1.1929    3.1620   50.2887 C.3     1  ZINC001289445798    0.0800
     26 C26        -7.1002    1.6503   51.6989 C.3     1  ZINC001289445798   -0.1100
     27 C27        -6.7183    0.1810   51.8892 C.3     1  ZINC001289445798   -0.1500
     28 C28        -8.1325    2.0498   52.7551 C.3     1  ZINC001289445798   -0.1500
     29 H29        -6.4698    6.4450   51.2713 H       1  ZINC001289445798    0.0600
     30 H30        -7.9776    6.2425   50.3474 H       1  ZINC001289445798    0.0700
     31 H31        -7.9586    5.9292   52.0994 H       1  ZINC001289445798    0.0600
     32 H32        -7.9376    3.8078   50.8158 H       1  ZINC001289445798    0.0500
     33 H33        -6.4489    4.3237   49.9876 H       1  ZINC001289445798    0.0500
     34 H34        -4.8400    1.3217   50.3759 H       1  ZINC001289445798    0.1100
     35 H35        -5.4599    2.8718   49.7583 H       1  ZINC001289445798    0.1000
     36 H36        -2.8502    0.6381   49.5098 H       1  ZINC001289445798    0.0800
     37 H37        -3.2371    1.8854   48.2919 H       1  ZINC001289445798    0.0800
     38 H38        -1.0333    2.1008   46.5056 H       1  ZINC001289445798    0.4000
     39 H39        -0.3662    1.7841   44.3263 H       1  ZINC001289445798    0.1700
     40 H40        -0.7905    0.5995   41.9517 H       1  ZINC001289445798    0.1900
     41 H41        -2.1006   -1.9669   44.8185 H       1  ZINC001289445798    0.4400
     42 H42         2.6456    3.9241   49.1297 H       1  ZINC001289445798    0.0900
     43 H43         1.3712    4.5477   48.0548 H       1  ZINC001289445798    0.0400
     44 H44         1.2049    4.7093   49.8197 H       1  ZINC001289445798    0.0500
     45 H45        -1.2212    4.2325   50.4918 H       1  ZINC001289445798    0.0900
     46 H46        -0.6678    2.6373   51.0870 H       1  ZINC001289445798    0.0900
     47 H47        -7.5251    1.7894   50.7047 H       1  ZINC001289445798    0.0800
     48 H48        -6.2935    0.0418   52.8834 H       1  ZINC001289445798    0.0600
     49 H49        -7.6065   -0.4420   51.7832 H       1  ZINC001289445798    0.0600
     50 H50        -5.9829   -0.1037   51.1367 H       1  ZINC001289445798    0.0600
     51 H51        -8.4773    3.0653   52.5602 H       1  ZINC001289445798    0.0600
     52 H52        -8.9790    1.3644   52.7134 H       1  ZINC001289445798    0.0600
     53 H53        -7.6767    2.0045   53.7441 H       1  ZINC001289445798    0.0500
@<TRIPOS>BOND
     1     1     2    1
     2     1    29    1
     3     1    30    1
     4     1    31    1
     5     2     3    1
     6     2    32    1
     7     2    33    1
     8     3     4    1
     9     4     5    1
    10     4     6    1
    11     4    26    1
    12     6     7    1
    13     6    34    1
    14     6    35    1
    15     7     8    2
    16     7     9   am
    17     9    25    1
    18     9    10    1
    19    10    11    1
    20    10    36    1
    21    10    37    1
    22    11    12    1
    23    11    13    1
    24    11    21    1
    25    13    14   am
    26    13    38    1
    27    14    15    2
    28    14    16    1
    29    16    20    1
    30    16    17    2
    31    17    18    1
    32    17    39    1
    33    18    19    2
    34    18    40    1
    35    19    20    1
    36    20    41    1
    37    21    22    1
    38    21    23    1
    39    21    25    1
    40    23    24    1
    41    24    42    1
    42    24    43    1
    43    24    44    1
    44    25    45    1
    45    25    46    1
    46    26    27    1
    47    26    28    1
    48    26    47    1
    49    27    48    1
    50    27    49    1
    51    27    50    1
    52    28    51    1
    53    28    52    1
    54    28    53    1
@<TRIPOS>SUBSTRUCTURE
     1 ZINC001289445798        1 TEMP              0 ****  ****    0 ROOT


##########                                Name:    ZINC000893400114
##########                DOCK_Rotatable_Bonds:                   6
##########                         Heavy_Atoms:                  27
##########                    Molecular_Weight:             381.472
##########                DOCK_Rotatable_Bonds:                   6
##########                       Formal_Charge:           0.0300001
##########                     HBond_Acceptors:                   8
##########                        HBond_Donors:                   1
##########                         Heavy_Atoms:                  27
##########                          Grid_Score:          -34.480999
##########                     Grid_vdw_energy:          -33.036236
##########                      Grid_es_energy:           -1.444764
##########           Internal_energy_repulsive:           82.063370

@<TRIPOS>MOLECULE
ZINC000893400114
 58 61 1 0 0
SMALL
USER_CHARGES


@<TRIPOS>ATOM
      1 O1         -3.9687    2.3317   48.7473 O.2     1  ZINC000893400114   -0.5600
      2 C2         -3.5771    3.1016   49.6031 C.2     1  ZINC000893400114    0.7100
      3 N3         -4.4551    3.6615   50.4586 N.am    1  ZINC000893400114   -0.7300
      4 C4         -5.8822    3.3472   50.3537 C.3     1  ZINC000893400114    0.1400
      5 H5         -6.1490    3.1302   49.3194 H       1  ZINC000893400114    0.1200
      6 C6         -6.7352    4.5160   50.8989 C.3     1  ZINC000893400114   -0.1400
      7 C7         -6.9597    4.0849   52.3653 C.3     1  ZINC000893400114    0.1000
      8 N8         -6.8412    2.6221   52.3658 N.am    1  ZINC000893400114   -0.6200
      9 C9         -7.3224    1.7541   53.4436 C.3     1  ZINC000893400114    0.1600
     10 C10        -7.6636    2.6034   54.6717 C.3     1  ZINC000893400114   -0.1700
     11 C11        -8.2391    1.6985   55.7643 C.3     1  ZINC000893400114    0.0700
     12 O12        -9.3894    1.0173   55.2597 O.3     1  ZINC000893400114   -0.3800
     13 C13        -9.1218    0.1709   54.1398 C.3     1  ZINC000893400114    0.0700
     14 C14        -8.5818    1.0144   52.9820 C.3     1  ZINC000893400114   -0.1700
     15 C15        -6.2340    2.1786   51.2476 C.2     1  ZINC000893400114    0.5100
     16 O16        -6.0040    1.0144   50.9972 O.2     1  ZINC000893400114   -0.4900
     17 N17        -2.2642    3.3908   49.6995 N.am    1  ZINC000893400114   -0.6300
     18 C18        -1.7659    4.3149   50.7306 C.3     1  ZINC000893400114    0.0800
     19 C19        -0.6019    3.6388   51.4641 C.3     1  ZINC000893400114    0.0500
     20 O20         0.3552    3.1803   50.5063 O.3     1  ZINC000893400114   -0.3800
     21 C21        -0.1461    2.1895   49.6059 C.3     1  ZINC000893400114    0.0600
     22 C22        -1.2861    2.7871   48.7808 C.3     1  ZINC000893400114    0.1400
     23 H23        -0.8935    3.5553   48.1147 H       1  ZINC000893400114    0.0800
     24 C24        -1.9586    1.6863   47.9581 C.3     1  ZINC000893400114   -0.1200
     25 C25        -0.8997    0.9359   47.1479 C.3     1  ZINC000893400114    0.0700
     26 H26        -0.1174    0.5688   47.8122 H       1  ZINC000893400114    0.0800
     27 C27        -0.2875    1.8765   46.0877 C.3     1  ZINC000893400114   -0.1500
     28 C28        -0.1305    0.9347   44.8629 C.3     1  ZINC000893400114   -0.1600
     29 C29        -1.3676    0.0178   45.0363 C.3     1  ZINC000893400114    0.0500
     30 O30        -1.5053   -0.1628   46.4565 O.3     1  ZINC000893400114   -0.3800
     31 H31        -4.1422    4.2726   51.1439 H       1  ZINC000893400114    0.4000
     32 H32        -6.1862    5.4563   50.8485 H       1  ZINC000893400114    0.1000
     33 H33        -7.6824    4.5899   50.3647 H       1  ZINC000893400114    0.1000
     34 H34        -6.1980    4.5252   53.0087 H       1  ZINC000893400114    0.0700
     35 H35        -7.9539    4.3829   52.6981 H       1  ZINC000893400114    0.0800
     36 H36        -6.5489    1.0309   53.7020 H       1  ZINC000893400114    0.0900
     37 H37        -6.7605    3.0902   55.0402 H       1  ZINC000893400114    0.0800
     38 H38        -8.4004    3.3589   54.3989 H       1  ZINC000893400114    0.0900
     39 H39        -7.4874    0.9688   56.0652 H       1  ZINC000893400114    0.0500
     40 H40        -8.5235    2.3037   56.6251 H       1  ZINC000893400114    0.1000
     41 H41        -8.3817   -0.5788   54.4195 H       1  ZINC000893400114    0.0500
     42 H42       -10.0421   -0.3244   53.8304 H       1  ZINC000893400114    0.1000
     43 H43        -9.3372    1.7378   52.6751 H       1  ZINC000893400114    0.0900
     44 H44        -8.3356    0.3649   52.1421 H       1  ZINC000893400114    0.0700
     45 H45        -1.4191    5.2357   50.2616 H       1  ZINC000893400114    0.0800
     46 H46        -2.5640    4.5406   51.4378 H       1  ZINC000893400114    0.0800
     47 H47        -0.1299    4.3553   52.1363 H       1  ZINC000893400114    0.1100
     48 H48        -0.9766    2.7916   52.0386 H       1  ZINC000893400114    0.0500
     49 H49         0.6538    1.8633   48.9413 H       1  ZINC000893400114    0.1300
     50 H50        -0.5191    1.3371   50.1736 H       1  ZINC000893400114    0.0500
     51 H51        -2.4648    0.9904   48.6272 H       1  ZINC000893400114    0.0800
     52 H52        -2.6862    2.1326   47.2801 H       1  ZINC000893400114    0.1100
     53 H53        -0.9662    2.6986   45.8604 H       1  ZINC000893400114    0.0800
     54 H54         0.6820    2.2516   46.4154 H       1  ZINC000893400114    0.0800
     55 H55        -0.1835    1.4933   43.9284 H       1  ZINC000893400114    0.0800
     56 H56         0.7948    0.3617   44.9240 H       1  ZINC000893400114    0.0800
     57 H57        -2.2558    0.4997   44.6276 H       1  ZINC000893400114    0.0600
     58 H58        -1.1985   -0.9420   44.5483 H       1  ZINC000893400114    0.0800
@<TRIPOS>BOND
     1     1     2    2
     2     2     3   am
     3     2    17   am
     4     3     4    1
     5     3    31    1
     6     4     5    1
     7     4    15    1
     8     4     6    1
     9     6     7    1
    10     6    32    1
    11     6    33    1
    12     7     8    1
    13     7    34    1
    14     7    35    1
    15     8     9    1
    16     8    15   am
    17     9    14    1
    18     9    10    1
    19     9    36    1
    20    10    11    1
    21    10    37    1
    22    10    38    1
    23    11    12    1
    24    11    39    1
    25    11    40    1
    26    12    13    1
    27    13    14    1
    28    13    41    1
    29    13    42    1
    30    14    43    1
    31    14    44    1
    32    15    16    2
    33    17    22    1
    34    17    18    1
    35    18    19    1
    36    18    45    1
    37    18    46    1
    38    19    20    1
    39    19    47    1
    40    19    48    1
    41    20    21    1
    42    21    22    1
    43    21    49    1
    44    21    50    1
    45    22    23    1
    46    22    24    1
    47    24    25    1
    48    24    51    1
    49    24    52    1
    50    25    26    1
    51    25    30    1
    52    25    27    1
    53    27    28    1
    54    27    53    1
    55    27    54    1
    56    28    29    1
    57    28    55    1
    58    28    56    1
    59    29    30    1
    60    29    57    1
    61    29    58    1
@<TRIPOS>SUBSTRUCTURE
     1 ZINC000893400114        1 TEMP              0 ****  ****    0 ROOT


##########                                Name:    ZINC001119787528
##########                DOCK_Rotatable_Bonds:                   6
##########                         Heavy_Atoms:                  27
##########                    Molecular_Weight:             362.434
##########                DOCK_Rotatable_Bonds:                   6
##########                       Formal_Charge:          -0.0199998
##########                     HBond_Acceptors:                   7
##########                        HBond_Donors:                   1
##########                         Heavy_Atoms:                  27
##########                          Grid_Score:          -34.455620
##########                     Grid_vdw_energy:          -32.282597
##########                      Grid_es_energy:           -2.173024
##########           Internal_energy_repulsive:           10.972668

@<TRIPOS>MOLECULE
ZINC001119787528
 49 52 1 0 0
SMALL
USER_CHARGES


@<TRIPOS>ATOM
      1 C1         -7.1599    4.4361   55.6764 C.3     1  ZINC001119787528   -0.1700
      2 C2         -6.1541    3.3139   55.4118 C.3     1  ZINC001119787528    0.1000
      3 N3         -5.0747    3.8169   54.5584 N.pl3   1  ZINC001119787528   -0.4500
      4 C4         -4.0216    4.5690   54.9532 C.2     1  ZINC001119787528    0.1800
      5 N5         -3.2730    4.8242   53.9117 N.2     1  ZINC001119787528   -0.4800
      6 C6         -3.8147    4.2526   52.8341 C.2     1  ZINC001119787528   -0.0200
      7 C7         -4.9387    3.6108   53.2189 C.2     1  ZINC001119787528   -0.0100
      8 C8         -5.8411    2.8297   52.3001 C.3     1  ZINC001119787528   -0.0600
      9 C9         -5.5497    3.2431   50.8517 C.3     1  ZINC001119787528    0.1400
     10 N10        -4.0941    3.2919   50.6488 N.am    1  ZINC001119787528   -0.6200
     11 C11        -3.4886    2.4504   49.7876 C.2     1  ZINC001119787528    0.7200
     12 O12        -4.1470    1.6384   49.1670 O.2     1  ZINC001119787528   -0.5600
     13 N13        -2.1533    2.5092   49.6141 N.am    1  ZINC001119787528   -0.6600
     14 C14        -1.5289    1.6412   48.7259 C.ar    1  ZINC001119787528    0.4200
     15 C15        -0.5298    0.7735   49.1674 C.ar    1  ZINC001119787528   -0.2500
     16 C16         0.0604   -0.0706   48.2458 C.ar    1  ZINC001119787528    0.1600
     17 N17        -0.3386   -0.0287   46.9830 N.ar    1  ZINC001119787528   -0.5300
     18 C18        -1.2856    0.8030   46.5977 C.ar    1  ZINC001119787528    0.3500
     19 C19        -1.7065    0.8143   45.1507 C.3     1  ZINC001119787528   -0.0100
     20 C20        -0.4830    0.8618   44.2721 C.ar    1  ZINC001119787528   -0.0800
     21 C21         0.5639    1.7065   44.5903 C.ar    1  ZINC001119787528   -0.1000
     22 C22         1.6862    1.7502   43.7845 C.ar    1  ZINC001119787528   -0.1200
     23 C23         1.7618    0.9490   42.6606 C.ar    1  ZINC001119787528   -0.1200
     24 C24         0.7152    0.1036   42.3429 C.ar    1  ZINC001119787528   -0.1200
     25 C25        -0.4053    0.0567   43.1511 C.ar    1  ZINC001119787528   -0.1000
     26 N26        -1.8782    1.6209   47.4435 N.ar    1  ZINC001119787528   -0.5500
     27 C27        -3.3104    4.2798   51.4106 C.3     1  ZINC001119787528    0.2000
     28 H28        -7.9631    4.0619   56.3113 H       1  ZINC001119787528    0.0800
     29 H29        -6.6573    5.2641   56.1763 H       1  ZINC001119787528    0.0600
     30 H30        -7.5760    4.7817   54.7301 H       1  ZINC001119787528    0.0600
     31 H31        -5.7381    2.9683   56.3582 H       1  ZINC001119787528    0.0900
     32 H32        -6.6568    2.4860   54.9118 H       1  ZINC001119787528    0.1000
     33 H33        -3.8307    4.9038   55.9621 H       1  ZINC001119787528    0.2100
     34 H34        -5.6508    1.7633   52.4210 H       1  ZINC001119787528    0.0800
     35 H35        -6.8821    3.0465   52.5395 H       1  ZINC001119787528    0.0900
     36 H36        -5.9884    2.5149   50.1696 H       1  ZINC001119787528    0.1100
     37 H37        -5.9774    4.2272   50.6605 H       1  ZINC001119787528    0.0800
     38 H38        -1.6281    3.1571   50.1093 H       1  ZINC001119787528    0.4200
     39 H39        -0.2248    0.7619   50.2034 H       1  ZINC001119787528    0.1800
     40 H40         0.8375   -0.7557   48.5511 H       1  ZINC001119787528    0.1700
     41 H41        -2.2766   -0.0885   44.9311 H       1  ZINC001119787528    0.1000
     42 H42        -2.3256    1.6906   44.9591 H       1  ZINC001119787528    0.1000
     43 H43         0.5049    2.3326   45.4684 H       1  ZINC001119787528    0.1300
     44 H44         2.5039    2.4108   44.0326 H       1  ZINC001119787528    0.1200
     45 H45         2.6382    0.9836   42.0306 H       1  ZINC001119787528    0.1200
     46 H46         0.7740   -0.5222   41.4646 H       1  ZINC001119787528    0.1200
     47 H47        -1.2229   -0.6037   42.9029 H       1  ZINC001119787528    0.1200
     48 H48        -3.4574    5.2743   50.9895 H       1  ZINC001119787528    0.0900
     49 H49        -2.2532    4.0164   51.3818 H       1  ZINC001119787528    0.0900
@<TRIPOS>BOND
     1     1     2    1
     2     1    28    1
     3     1    29    1
     4     1    30    1
     5     2     3    1
     6     2    31    1
     7     2    32    1
     8     3     7    1
     9     3     4    1
    10     4     5    2
    11     4    33    1
    12     5     6    1
    13     6    27    1
    14     6     7    2
    15     7     8    1
    16     8     9    1
    17     8    34    1
    18     8    35    1
    19     9    10    1
    20     9    36    1
    21     9    37    1
    22    10    11   am
    23    10    27    1
    24    11    12    2
    25    11    13   am
    26    13    14    1
    27    13    38    1
    28    14    26   ar
    29    14    15   ar
    30    15    16   ar
    31    15    39    1
    32    16    17   ar
    33    16    40    1
    34    17    18   ar
    35    18    19    1
    36    18    26   ar
    37    19    20    1
    38    19    41    1
    39    19    42    1
    40    20    25   ar
    41    20    21   ar
    42    21    22   ar
    43    21    43    1
    44    22    23   ar
    45    22    44    1
    46    23    24   ar
    47    23    45    1
    48    24    25   ar
    49    24    46    1
    50    25    47    1
    51    27    48    1
    52    27    49    1
@<TRIPOS>SUBSTRUCTURE
     1 ZINC001119787528        1 TEMP              0 ****  ****    0 ROOT


##########                                Name:    ZINC000541568816
##########                DOCK_Rotatable_Bonds:                   8
##########                         Heavy_Atoms:                  25
##########                    Molecular_Weight:             411.339
##########                DOCK_Rotatable_Bonds:                   8
##########                       Formal_Charge:          -0.0100007
##########                     HBond_Acceptors:                   5
##########                        HBond_Donors:                   1
##########                         Heavy_Atoms:                  25
##########                          Grid_Score:          -34.436909
##########                     Grid_vdw_energy:          -34.481403
##########                      Grid_es_energy:            0.044494
##########           Internal_energy_repulsive:           19.622454

@<TRIPOS>MOLECULE
ZINC000541568816
 52 54 1 0 0
SMALL
USER_CHARGES


@<TRIPOS>ATOM
      1 C1         -1.1210   -0.3780   42.9932 C.3     1  ZINC000541568816   -0.1500
      2 C2         -1.7913    0.3177   44.1797 C.3     1  ZINC000541568816    0.0600
      3 O3         -0.8154    1.0683   44.9050 O.3     1  ZINC000541568816   -0.3700
      4 C4         -1.3078    1.6439   46.1167 C.3     1  ZINC000541568816    0.0700
      5 H5         -2.3848    1.8109   46.0993 H       1  ZINC000541568816    0.0900
      6 C6         -0.5015    2.8655   46.5920 C.3     1  ZINC000541568816   -0.1700
      7 C7         -0.6512    2.3132   48.0205 C.3     1  ZINC000541568816    0.1500
      8 H8          0.2513    2.4111   48.6238 H       1  ZINC000541568816    0.1100
      9 N9         -1.8524    2.7888   48.7113 N.am    1  ZINC000541568816   -0.7200
     10 C10        -1.8020    3.0825   50.0257 C.2     1  ZINC000541568816    0.7100
     11 O11        -0.7593    2.9541   50.6378 O.2     1  ZINC000541568816   -0.5800
     12 N12        -2.9075    3.5185   50.6617 N.am    1  ZINC000541568816   -0.6300
     13 C13        -2.8532    3.8361   52.0908 C.3     1  ZINC000541568816    0.1000
     14 C14        -2.4599    5.3035   52.2726 C.3     1  ZINC000541568816   -0.1800
     15 C15        -4.1634    3.6748   49.9237 C.3     1  ZINC000541568816    0.1700
     16 C16        -5.2184    2.7889   50.5343 C.ar    1  ZINC000541568816   -0.0700
     17 C17        -5.1521    1.4187   50.3664 C.ar    1  ZINC000541568816   -0.1000
     18 C18        -6.1200    0.6057   50.9266 C.ar    1  ZINC000541568816   -0.1000
     19 C19        -7.1542    1.1629   51.6551 C.ar    1  ZINC000541568816   -0.1200
     20 C20        -7.2213    2.5333   51.8235 C.ar    1  ZINC000541568816   -0.0900
     21 C21        -6.2504    3.3465   51.2677 C.ar    1  ZINC000541568816   -0.0900
     22 Br22       -6.3417    5.2213   51.4978 Br      1  ZINC000541568816   -0.0500
     23 C23        -0.8173    0.9294   47.3800 C.3     1  ZINC000541568816    0.0800
     24 C24         0.4938    0.1440   47.2029 C.3     1  ZINC000541568816   -0.1200
     25 C25         0.3415   -0.9846   48.2606 C.3     1  ZINC000541568816   -0.1600
     26 C26        -1.1891   -1.2255   48.2184 C.3     1  ZINC000541568816    0.0500
     27 O27        -1.7690    0.0743   48.0103 O.3     1  ZINC000541568816   -0.3600
     28 H28        -0.6767    0.3703   42.3368 H       1  ZINC000541568816    0.0600
     29 H29        -0.3434   -1.0493   43.3575 H       1  ZINC000541568816    0.0600
     30 H30        -1.8654   -0.9506   42.4398 H       1  ZINC000541568816    0.0700
     31 H31        -2.5689    0.9890   43.8152 H       1  ZINC000541568816    0.0500
     32 H32        -2.2356   -0.4306   44.8359 H       1  ZINC000541568816    0.0500
     33 H33         0.5279    2.8752   46.2336 H       1  ZINC000541568816    0.1000
     34 H34        -1.0140    3.8146   46.4351 H       1  ZINC000541568816    0.0800
     35 H35        -2.6839    2.8923   48.2227 H       1  ZINC000541568816    0.4000
     36 H36        -3.8320    3.6641   52.5385 H       1  ZINC000541568816    0.0900
     37 H37        -2.1142    3.1990   52.5767 H       1  ZINC000541568816    0.0700
     38 H38        -3.1988    5.9406   51.7866 H       1  ZINC000541568816    0.0600
     39 H39        -2.4195    5.5398   53.3359 H       1  ZINC000541568816    0.0700
     40 H40        -1.4812    5.4755   51.8247 H       1  ZINC000541568816    0.0600
     41 H41        -4.4877    4.7142   49.9746 H       1  ZINC000541568816    0.1000
     42 H42        -4.0102    3.3927   48.8820 H       1  ZINC000541568816    0.1100
     43 H43        -4.3443    0.9830   49.7972 H       1  ZINC000541568816    0.1300
     44 H44        -6.0684   -0.4650   50.7946 H       1  ZINC000541568816    0.1300
     45 H45        -7.9101    0.5274   52.0925 H       1  ZINC000541568816    0.1300
     46 H46        -8.0296    2.9686   52.3925 H       1  ZINC000541568816    0.1300
     47 H47         0.5656   -0.2717   46.1978 H       1  ZINC000541568816    0.1000
     48 H48         1.3565    0.7720   47.4253 H       1  ZINC000541568816    0.0900
     49 H49         0.8882   -1.8790   47.9619 H       1  ZINC000541568816    0.0900
     50 H50         0.6583   -0.6441   49.2464 H       1  ZINC000541568816    0.0800
     51 H51        -1.4447   -1.8902   47.3932 H       1  ZINC000541568816    0.0600
     52 H52        -1.5321   -1.6457   49.1639 H       1  ZINC000541568816    0.0900
@<TRIPOS>BOND
     1     1     2    1
     2     1    28    1
     3     1    29    1
     4     1    30    1
     5     2     3    1
     6     2    31    1
     7     2    32    1
     8     3     4    1
     9     4     5    1
    10     4    23    1
    11     4     6    1
    12     6     7    1
    13     6    33    1
    14     6    34    1
    15     7     8    1
    16     7     9    1
    17     7    23    1
    18     9    10   am
    19     9    35    1
    20    10    11    2
    21    10    12   am
    22    12    13    1
    23    12    15    1
    24    13    14    1
    25    13    36    1
    26    13    37    1
    27    14    38    1
    28    14    39    1
    29    14    40    1
    30    15    16    1
    31    15    41    1
    32    15    42    1
    33    16    21   ar
    34    16    17   ar
    35    17    18   ar
    36    17    43    1
    37    18    19   ar
    38    18    44    1
    39    19    20   ar
    40    19    45    1
    41    20    21   ar
    42    20    46    1
    43    21    22    1
    44    23    27    1
    45    23    24    1
    46    24    25    1
    47    24    47    1
    48    24    48    1
    49    25    26    1
    50    25    49    1
    51    25    50    1
    52    26    27    1
    53    26    51    1
    54    26    52    1
@<TRIPOS>SUBSTRUCTURE
     1 ZINC000541568816        1 TEMP              0 ****  ****    0 ROOT


##########                                Name:    ZINC000892249927
##########                DOCK_Rotatable_Bonds:                   8
##########                         Heavy_Atoms:                  27
##########                    Molecular_Weight:             364.487
##########                DOCK_Rotatable_Bonds:                   8
##########                       Formal_Charge:          -0.0300015
##########                     HBond_Acceptors:                   4
##########                        HBond_Donors:                   1
##########                         Heavy_Atoms:                  27
##########                          Grid_Score:          -34.413425
##########                     Grid_vdw_energy:          -34.554615
##########                      Grid_es_energy:            0.141191
##########           Internal_energy_repulsive:           13.854954

@<TRIPOS>MOLECULE
ZINC000892249927
 55 58 1 0 0
SMALL
USER_CHARGES


@<TRIPOS>ATOM
      1 O1         -0.7536    2.5480   50.8035 O.2     1  ZINC000892249927   -0.5300
      2 C2         -1.6471    2.5504   49.9834 C.2     1  ZINC000892249927    0.5100
      3 C3         -3.0305    2.9996   50.3776 C.3     1  ZINC000892249927   -0.1400
      4 C4         -4.0686    2.2436   49.5459 C.3     1  ZINC000892249927   -0.1000
      5 C5         -5.4534    2.8476   49.7872 C.3     1  ZINC000892249927   -0.0800
      6 C6         -5.8823    2.5702   51.2050 C.ar    1  ZINC000892249927   -0.0900
      7 C7         -6.5821    1.4158   51.5021 C.ar    1  ZINC000892249927   -0.1100
      8 C8         -6.9755    1.1614   52.8027 C.ar    1  ZINC000892249927   -0.1100
      9 C9         -6.6687    2.0612   53.8062 C.ar    1  ZINC000892249927   -0.0500
     10 C10        -7.0980    1.7841   55.2240 C.3     1  ZINC000892249927   -0.1200
     11 C11        -8.3759    2.4632   55.7206 C.3     1  ZINC000892249927   -0.1800
     12 C12        -8.3716    0.9613   55.4283 C.3     1  ZINC000892249927   -0.1700
     13 C13        -5.9676    3.2150   53.5093 C.ar    1  ZINC000892249927   -0.1200
     14 C14        -5.5709    3.4675   52.2094 C.ar    1  ZINC000892249927   -0.1100
     15 N15        -1.4015    2.1567   48.7180 N.am    1  ZINC000892249927   -0.7300
     16 C16        -0.0567    1.7200   48.3347 C.3     1  ZINC000892249927    0.1400
     17 H17         0.3779    1.1279   49.1402 H       1  ZINC000892249927    0.1000
     18 C18         0.8230    2.9450   48.0672 C.3     1  ZINC000892249927   -0.1700
     19 C19         0.2471    3.7287   46.8849 C.3     1  ZINC000892249927    0.0600
     20 O20         0.1714    2.8755   45.7411 O.3     1  ZINC000892249927   -0.3700
     21 C21        -0.6754    1.7379   45.9168 C.3     1  ZINC000892249927    0.1400
     22 H22        -1.6853    2.0701   46.1570 H       1  ZINC000892249927    0.0700
     23 C23        -0.7013    0.9295   44.6451 C.ar    1  ZINC000892249927   -0.1400
     24 C24         0.4665    0.7030   43.9335 C.ar    1  ZINC000892249927   -0.0700
     25 C25         0.3951   -0.0469   42.7692 C.ar    1  ZINC000892249927   -0.1700
     26 C26        -0.8291   -0.5399   42.3599 C.ar    1  ZINC000892249927    0.1000
     27 N27        -1.9203   -0.3045   43.0624 N.ar    1  ZINC000892249927   -0.4900
     28 C28        -1.8889    0.3997   44.1767 C.ar    1  ZINC000892249927    0.1300
     29 C29        -0.1367    0.8723   47.0614 C.3     1  ZINC000892249927   -0.1500
     30 H30        -3.1920    2.7926   51.4356 H       1  ZINC000892249927    0.0900
     31 H31        -3.1302    4.0699   50.1975 H       1  ZINC000892249927    0.0900
     32 H32        -3.8159    2.3246   48.4887 H       1  ZINC000892249927    0.0700
     33 H33        -4.0741    1.1937   49.8387 H       1  ZINC000892249927    0.0700
     34 H34        -5.4137    3.9245   49.6237 H       1  ZINC000892249927    0.0700
     35 H35        -6.1697    2.4015   49.0972 H       1  ZINC000892249927    0.0700
     36 H36        -6.8219    0.7127   50.7181 H       1  ZINC000892249927    0.1200
     37 H37        -7.5230    0.2597   53.0348 H       1  ZINC000892249927    0.1200
     38 H38        -6.2892    1.6465   55.9416 H       1  ZINC000892249927    0.1100
     39 H39        -8.4081    2.7725   56.7653 H       1  ZINC000892249927    0.1000
     40 H40        -8.9062    3.1103   55.0219 H       1  ZINC000892249927    0.1000
     41 H41        -8.8990    0.6204   54.5374 H       1  ZINC000892249927    0.1000
     42 H42        -8.4009    0.2827   56.2808 H       1  ZINC000892249927    0.1000
     43 H43        -5.7275    3.9178   54.2934 H       1  ZINC000892249927    0.1200
     44 H44        -5.0231    4.3690   51.9775 H       1  ZINC000892249927    0.1200
     45 H45        -2.1153    2.1623   48.0612 H       1  ZINC000892249927    0.4000
     46 H46         0.8404    3.5813   48.9521 H       1  ZINC000892249927    0.0800
     47 H47         1.8365    2.6210   47.8303 H       1  ZINC000892249927    0.0800
     48 H48        -0.7508    4.0870   47.1378 H       1  ZINC000892249927    0.0500
     49 H49         0.8930    4.5782   46.6627 H       1  ZINC000892249927    0.1000
     50 H50         1.4097    1.1014   44.2775 H       1  ZINC000892249927    0.1300
     51 H51         1.2851   -0.2428   42.1895 H       1  ZINC000892249927    0.1400
     52 H52        -0.8934   -1.1245   41.4541 H       1  ZINC000892249927    0.1600
     53 H53        -2.8033    0.5718   44.7252 H       1  ZINC000892249927    0.1600
     54 H54         0.8573    0.5060   46.8045 H       1  ZINC000892249927    0.0900
     55 H55        -0.8059    0.0277   47.2254 H       1  ZINC000892249927    0.0800
@<TRIPOS>BOND
     1     1     2    2
     2     2     3    1
     3     2    15   am
     4     3     4    1
     5     3    30    1
     6     3    31    1
     7     4     5    1
     8     4    32    1
     9     4    33    1
    10     5     6    1
    11     5    34    1
    12     5    35    1
    13     6    14   ar
    14     6     7   ar
    15     7     8   ar
    16     7    36    1
    17     8     9   ar
    18     8    37    1
    19     9    10    1
    20     9    13   ar
    21    10    12    1
    22    10    11    1
    23    10    38    1
    24    11    12    1
    25    11    39    1
    26    11    40    1
    27    12    41    1
    28    12    42    1
    29    13    14   ar
    30    13    43    1
    31    14    44    1
    32    15    16    1
    33    15    45    1
    34    16    17    1
    35    16    29    1
    36    16    18    1
    37    18    19    1
    38    18    46    1
    39    18    47    1
    40    19    20    1
    41    19    48    1
    42    19    49    1
    43    20    21    1
    44    21    22    1
    45    21    23    1
    46    21    29    1
    47    23    28   ar
    48    23    24   ar
    49    24    25   ar
    50    24    50    1
    51    25    26   ar
    52    25    51    1
    53    26    27   ar
    54    26    52    1
    55    27    28   ar
    56    28    53    1
    57    29    54    1
    58    29    55    1
@<TRIPOS>SUBSTRUCTURE
     1 ZINC000892249927        1 TEMP              0 ****  ****    0 ROOT


##########                                Name:    ZINC000967287417
##########                DOCK_Rotatable_Bonds:                   7
##########                         Heavy_Atoms:                  25
##########                    Molecular_Weight:             347.414
##########                DOCK_Rotatable_Bonds:                   7
##########                       Formal_Charge:          -0.0200002
##########                     HBond_Acceptors:                   7
##########                        HBond_Donors:                   1
##########                         Heavy_Atoms:                  25
##########                          Grid_Score:          -34.405624
##########                     Grid_vdw_energy:          -33.280376
##########                      Grid_es_energy:           -1.125247
##########           Internal_energy_repulsive:           11.729615

@<TRIPOS>MOLECULE
ZINC000967287417
 50 52 1 0 0
SMALL
USER_CHARGES


@<TRIPOS>ATOM
      1 C1         -5.9285    2.3934   52.9032 C.3     1  ZINC000967287417    0.0300
      2 O2         -6.4323    1.6730   51.7765 O.3     1  ZINC000967287417   -0.3900
      3 C3         -6.0967    2.2567   50.5161 C.3     1  ZINC000967287417    0.1400
      4 C4         -4.5994    2.3868   50.4056 C.2     1  ZINC000967287417    0.0100
      5 C5         -3.8767    3.4758   50.7488 C.2     1  ZINC000967287417   -0.1900
      6 C6         -2.5301    3.1766   50.4891 C.2     1  ZINC000967287417   -0.1200
      7 C7         -2.4990    1.9044   49.9944 C.2     1  ZINC000967287417   -0.0700
      8 C8         -1.2990    1.1692   49.5820 C.2     1  ZINC000967287417    0.6100
      9 O9         -1.4024    0.0555   49.1024 O.2     1  ZINC000967287417   -0.5200
     10 N10        -0.0814    1.7267   49.7343 N.am    1  ZINC000967287417   -0.7000
     11 C11         1.1173    0.9930   49.3207 C.3     1  ZINC000967287417    0.1600
     12 H12         0.9986   -0.0634   49.5618 H       1  ZINC000967287417    0.1000
     13 C13         1.3192    1.1530   47.8122 C.3     1  ZINC000967287417    0.0400
     14 N14         1.4991    2.5742   47.4892 N.3     1  ZINC000967287417   -0.5300
     15 C15         1.5575    2.7805   46.0360 C.3     1  ZINC000967287417    0.1300
     16 C16         0.2982    2.2480   45.4021 C.2     1  ZINC000967287417    0.0200
     17 N17        -0.8967    2.7561   45.4951 N.2     1  ZINC000967287417   -0.3500
     18 O18        -1.7065    2.1058   44.8759 O.3     1  ZINC000967287417    0.1000
     19 C19        -1.1364    1.0519   44.2750 C.2     1  ZINC000967287417   -0.0300
     20 C20        -1.8249    0.0199   43.4193 C.3     1  ZINC000967287417   -0.0800
     21 C21         0.1815    1.1012   44.5835 C.2     1  ZINC000967287417   -0.2400
     22 C22         2.6928    3.1212   48.1468 C.3     1  ZINC000967287417    0.0500
     23 C23         2.5318    3.0198   49.6653 C.3     1  ZINC000967287417   -0.1100
     24 C24         2.3380    1.5515   50.0570 C.3     1  ZINC000967287417   -0.1000
     25 H25         3.2238    0.9804   49.7791 H       1  ZINC000967287417    0.0900
     26 C26         2.1175    1.4502   51.5677 C.3     1  ZINC000967287417   -0.1500
     27 O27        -3.7652    1.4401   49.9565 O.3     1  ZINC000967287417   -0.1600
     28 H28        -6.3345    3.4050   52.8988 H       1  ZINC000967287417    0.0500
     29 H29        -6.2259    1.8865   53.8212 H       1  ZINC000967287417    0.0900
     30 H30        -4.8407    2.4382   52.8489 H       1  ZINC000967287417    0.0500
     31 H31        -6.4665    1.6212   49.7114 H       1  ZINC000967287417    0.0900
     32 H32        -6.5538    3.2432   50.4393 H       1  ZINC000967287417    0.0700
     33 H33        -4.2626    4.4022   51.1479 H       1  ZINC000967287417    0.1600
     34 H34        -1.6828    3.8269   50.6495 H       1  ZINC000967287417    0.1600
     35 H35         0.0012    2.6139   50.1177 H       1  ZINC000967287417    0.4100
     36 H36         2.2033    0.5955   47.5029 H       1  ZINC000967287417    0.0500
     37 H37         0.4453    0.7688   47.2859 H       1  ZINC000967287417    0.0900
     38 H38         1.6489    3.8456   45.8234 H       1  ZINC000967287417    0.0600
     39 H39         2.4202    2.2533   45.6285 H       1  ZINC000967287417    0.0900
     40 H40        -2.8874    0.2534   43.3525 H       1  ZINC000967287417    0.0800
     41 H41        -1.3880    0.0259   42.4207 H       1  ZINC000967287417    0.0900
     42 H42        -1.6970   -0.9661   43.8660 H       1  ZINC000967287417    0.0900
     43 H43         0.9616    0.4186   44.2801 H       1  ZINC000967287417    0.1700
     44 H44         3.5705    2.5545   47.8360 H       1  ZINC000967287417    0.0400
     45 H45         2.8166    4.1664   47.8636 H       1  ZINC000967287417    0.0800
     46 H46         3.4246    3.4115   50.1528 H       1  ZINC000967287417    0.0700
     47 H47         1.6623    3.5977   49.9784 H       1  ZINC000967287417    0.0700
     48 H48         1.2302    2.0197   51.8444 H       1  ZINC000967287417    0.0600
     49 H49         1.9797    0.4052   51.8455 H       1  ZINC000967287417    0.0600
     50 H50         2.9854    1.8534   52.0894 H       1  ZINC000967287417    0.0600
@<TRIPOS>BOND
     1     1     2    1
     2     1    28    1
     3     1    29    1
     4     1    30    1
     5     2     3    1
     6     3     4    1
     7     3    31    1
     8     3    32    1
     9     4    27    1
    10     4     5    2
    11     5     6    1
    12     5    33    1
    13     6     7    2
    14     6    34    1
    15     7     8    1
    16     7    27    1
    17     8     9    2
    18     8    10   am
    19    10    11    1
    20    10    35    1
    21    11    12    1
    22    11    24    1
    23    11    13    1
    24    13    14    1
    25    13    36    1
    26    13    37    1
    27    14    15    1
    28    14    22    1
    29    15    16    1
    30    15    38    1
    31    15    39    1
    32    16    21    1
    33    16    17    2
    34    17    18    1
    35    18    19    1
    36    19    20    1
    37    19    21    2
    38    20    40    1
    39    20    41    1
    40    20    42    1
    41    21    43    1
    42    22    23    1
    43    22    44    1
    44    22    45    1
    45    23    24    1
    46    23    46    1
    47    23    47    1
    48    24    25    1
    49    24    26    1
    50    26    48    1
    51    26    49    1
    52    26    50    1
@<TRIPOS>SUBSTRUCTURE
     1 ZINC000967287417        1 TEMP              0 ****  ****    0 ROOT


##########                                Name:    ZINC000506156755
##########                DOCK_Rotatable_Bonds:                   7
##########                         Heavy_Atoms:                  30
##########                    Molecular_Weight:             400.434
##########                DOCK_Rotatable_Bonds:                   7
##########                       Formal_Charge:          -0.0200001
##########                     HBond_Acceptors:                   6
##########                        HBond_Donors:                   1
##########                         Heavy_Atoms:                  30
##########                          Grid_Score:          -34.395164
##########                     Grid_vdw_energy:          -34.057613
##########                      Grid_es_energy:           -0.337552
##########           Internal_energy_repulsive:           21.464254

@<TRIPOS>MOLECULE
ZINC000506156755
 50 53 1 0 0
SMALL
USER_CHARGES


@<TRIPOS>ATOM
      1 C1         -0.4538    0.4524   49.2568 C.3     1  ZINC000506156755   -0.1600
      2 C2         -0.9196    1.8982   49.4393 C.3     1  ZINC000506156755    0.1900
      3 H3         -0.7142    2.2201   50.4602 H       1  ZINC000506156755    0.1000
      4 N4         -2.3590    1.9839   49.1805 N.am    1  ZINC000506156755   -0.7200
      5 C5         -3.1544    2.6769   50.0192 C.2     1  ZINC000506156755    0.5000
      6 O6         -2.6788    3.2283   50.9890 O.2     1  ZINC000506156755   -0.5200
      7 C7         -4.6348    2.7666   49.7520 C.3     1  ZINC000506156755    0.0900
      8 N8         -5.3724    2.4403   50.9750 N.am    1  ZINC000506156755   -0.5600
      9 C9         -6.0506    1.2953   51.1722 C.2     1  ZINC000506156755    0.5800
     10 O10        -6.1471    0.3826   50.3769 O.2     1  ZINC000506156755   -0.4600
     11 C11        -6.6582    1.3338   52.5192 C.ar    1  ZINC000506156755   -0.1400
     12 C12        -7.4465    0.4604   53.2503 C.ar    1  ZINC000506156755   -0.0400
     13 C13        -7.8610    0.8119   54.5258 C.ar    1  ZINC000506156755   -0.0900
     14 C14        -7.4931    2.0268   55.0720 C.ar    1  ZINC000506156755   -0.0900
     15 C15        -6.7044    2.9111   54.3519 C.ar    1  ZINC000506156755   -0.0400
     16 C16        -6.2829    2.5733   53.0763 C.ar    1  ZINC000506156755   -0.1400
     17 C17        -5.4558    3.2436   52.0508 C.2     1  ZINC000506156755    0.5800
     18 O18        -4.9395    4.3374   52.1604 O.2     1  ZINC000506156755   -0.4600
     19 C19        -0.1817    2.7893   48.4736 C.ar    1  ZINC000506156755   -0.1200
     20 C20         0.6414    3.7916   48.9486 C.ar    1  ZINC000506156755   -0.0800
     21 C21         1.3191    4.6093   48.0631 C.ar    1  ZINC000506156755   -0.1400
     22 C22         1.1751    4.4260   46.7003 C.ar    1  ZINC000506156755   -0.0800
     23 C23         0.3531    3.4250   46.2199 C.ar    1  ZINC000506156755   -0.1900
     24 C24        -0.3240    2.5998   47.1062 C.ar    1  ZINC000506156755    0.1300
     25 O25        -1.1327    1.6141   46.6362 O.3     1  ZINC000506156755   -0.2500
     26 C26        -0.8930    1.1330   45.3882 C.ar    1  ZINC000506156755    0.0800
     27 C27         0.3991    0.7995   45.0082 C.ar    1  ZINC000506156755   -0.1400
     28 C28         0.6401    0.3107   43.7388 C.ar    1  ZINC000506156755   -0.1000
     29 C29        -0.4051    0.1537   42.8473 C.ar    1  ZINC000506156755   -0.1200
     30 C30        -1.6936    0.4853   43.2234 C.ar    1  ZINC000506156755   -0.1000
     31 C31        -1.9409    0.9691   44.4935 C.ar    1  ZINC000506156755   -0.1200
     32 H32        -0.9875   -0.1922   49.9553 H       1  ZINC000506156755    0.0700
     33 H33        -0.6592    0.1305   48.2359 H       1  ZINC000506156755    0.0600
     34 H34         0.6172    0.3886   49.4494 H       1  ZINC000506156755    0.0700
     35 H35        -2.7396    1.5418   48.4055 H       1  ZINC000506156755    0.4000
     36 H36        -4.8862    3.7788   49.4353 H       1  ZINC000506156755    0.1300
     37 H37        -4.9054    2.0620   48.9656 H       1  ZINC000506156755    0.1300
     38 H38        -7.7374   -0.4903   52.8283 H       1  ZINC000506156755    0.1400
     39 H39        -8.4759    0.1317   55.0964 H       1  ZINC000506156755    0.1400
     40 H40        -7.8225    2.2895   56.0664 H       1  ZINC000506156755    0.1400
     41 H41        -6.4195    3.8591   54.7839 H       1  ZINC000506156755    0.1400
     42 H42         0.7554    3.9371   50.0127 H       1  ZINC000506156755    0.1300
     43 H43         1.9619    5.3927   48.4367 H       1  ZINC000506156755    0.1300
     44 H44         1.7052    5.0662   46.0108 H       1  ZINC000506156755    0.1300
     45 H45         0.2406    3.2824   45.1553 H       1  ZINC000506156755    0.1300
     46 H46         1.2158    0.9222   45.7040 H       1  ZINC000506156755    0.1300
     47 H47         1.6457    0.0513   43.4425 H       1  ZINC000506156755    0.1300
     48 H48        -0.2145   -0.2283   41.8552 H       1  ZINC000506156755    0.1300
     49 H49        -2.5083    0.3617   42.5252 H       1  ZINC000506156755    0.1300
     50 H50        -2.9475    1.2277   44.7869 H       1  ZINC000506156755    0.1300
@<TRIPOS>BOND
     1     1     2    1
     2     1    32    1
     3     1    33    1
     4     1    34    1
     5     2     3    1
     6     2     4    1
     7     2    19    1
     8     4     5   am
     9     4    35    1
    10     5     6    2
    11     5     7    1
    12     7     8    1
    13     7    36    1
    14     7    37    1
    15     8    17   am
    16     8     9   am
    17     9    10    2
    18     9    11    1
    19    11    16   ar
    20    11    12   ar
    21    12    13   ar
    22    12    38    1
    23    13    14   ar
    24    13    39    1
    25    14    15   ar
    26    14    40    1
    27    15    16   ar
    28    15    41    1
    29    16    17    1
    30    17    18    2
    31    19    24   ar
    32    19    20   ar
    33    20    21   ar
    34    20    42    1
    35    21    22   ar
    36    21    43    1
    37    22    23   ar
    38    22    44    1
    39    23    24   ar
    40    23    45    1
    41    24    25    1
    42    25    26    1
    43    26    31   ar
    44    26    27   ar
    45    27    28   ar
    46    27    46    1
    47    28    29   ar
    48    28    47    1
    49    29    30   ar
    50    29    48    1
    51    30    31   ar
    52    30    49    1
    53    31    50    1
@<TRIPOS>SUBSTRUCTURE
     1 ZINC000506156755        1 TEMP              0 ****  ****    0 ROOT


##########                                Name:    ZINC000533037883
##########                DOCK_Rotatable_Bonds:                   7
##########                         Heavy_Atoms:                  27
##########                    Molecular_Weight:             368.479
##########                DOCK_Rotatable_Bonds:                   7
##########                       Formal_Charge:          0.00999947
##########                     HBond_Acceptors:                   6
##########                        HBond_Donors:                   1
##########                         Heavy_Atoms:                  27
##########                          Grid_Score:          -34.387493
##########                     Grid_vdw_energy:          -34.544510
##########                      Grid_es_energy:            0.157018
##########           Internal_energy_repulsive:           13.061536

@<TRIPOS>MOLECULE
ZINC000533037883
 55 58 1 0 0
SMALL
USER_CHARGES


@<TRIPOS>ATOM
      1 O1         -4.0911    4.7769   50.6505 O.2     1  ZINC000533037883   -0.5900
      2 C2         -4.4222    3.6706   51.0315 C.2     1  ZINC000533037883    0.7100
      3 N3         -3.8645    2.5737   50.4817 N.am    1  ZINC000533037883   -0.7500
      4 C4         -2.8639    2.7140   49.4208 C.3     1  ZINC000533037883    0.1400
      5 C5         -1.9658    1.4757   49.4000 C.3     1  ZINC000533037883   -0.0500
      6 C6         -1.0757    1.5212   48.1847 C.2     1  ZINC000533037883   -0.2300
      7 C7         -1.2951    0.8811   47.0129 C.2     1  ZINC000533037883    0.0600
      8 N8         -0.2695    1.1785   46.1832 N.pl3   1  ZINC000533037883   -0.3200
      9 C9         -0.1116    0.7181   44.8686 C.ar    1  ZINC000533037883    0.1600
     10 C10         1.0407    1.0256   44.1577 C.ar    1  ZINC000533037883   -0.1400
     11 C11         1.1934    0.5705   42.8626 C.ar    1  ZINC000533037883   -0.0900
     12 C12         0.2000   -0.1901   42.2738 C.ar    1  ZINC000533037883   -0.1300
     13 C13        -0.9486   -0.4980   42.9794 C.ar    1  ZINC000533037883   -0.0900
     14 C14        -1.1044   -0.0511   44.2769 C.ar    1  ZINC000533037883   -0.1200
     15 N15         0.6068    2.0287   46.8699 N.2     1  ZINC000533037883   -0.2900
     16 C16         0.1204    2.2376   48.0669 C.2     1  ZINC000533037883    0.0700
     17 N17        -5.3426    3.5415   52.0074 N.am    1  ZINC000533037883   -0.6300
     18 C18        -5.9594    4.7279   52.6164 C.3     1  ZINC000533037883    0.1100
     19 C19        -7.4827    4.5904   52.5310 C.3     1  ZINC000533037883   -0.1400
     20 C20        -7.9077    3.2647   53.1667 C.3     1  ZINC000533037883   -0.1100
     21 C21        -7.2741    2.1025   52.3988 C.3     1  ZINC000533037883   -0.0900
     22 H22        -7.5848    2.1437   51.3549 H       1  ZINC000533037883    0.0800
     23 C23        -7.7264    0.7768   53.0144 C.3     1  ZINC000533037883   -0.1200
     24 H24        -7.3595    0.6804   54.0362 H       1  ZINC000533037883    0.0900
     25 C25        -9.2731    0.6450   52.9677 C.3     1  ZINC000533037883   -0.1500
     26 C26        -9.4357   -0.8952   52.9207 C.3     1  ZINC000533037883    0.0500
     27 O27        -8.3434   -1.3633   52.1139 O.3     1  ZINC000533037883   -0.3900
     28 C28        -7.2647   -0.4161   52.1500 C.3     1  ZINC000533037883    0.0500
     29 C29        -5.7528    2.2117   52.4786 C.3     1  ZINC000533037883    0.1300
     30 H30        -4.1258    1.6913   50.7883 H       1  ZINC000533037883    0.4000
     31 H31        -3.3662    2.8150   48.4588 H       1  ZINC000533037883    0.0700
     32 H32        -2.2572    3.5999   49.6087 H       1  ZINC000533037883    0.0700
     33 H33        -1.3511    1.4574   50.2999 H       1  ZINC000533037883    0.0800
     34 H34        -2.5842    0.5789   49.3640 H       1  ZINC000533037883    0.0800
     35 H35        -2.1378    0.2463   46.7819 H       1  ZINC000533037883    0.1800
     36 H36         1.8166    1.6202   44.6167 H       1  ZINC000533037883    0.1300
     37 H37         2.0896    0.8094   42.3091 H       1  ZINC000533037883    0.1300
     38 H38         0.3215   -0.5442   41.2607 H       1  ZINC000533037883    0.1300
     39 H39        -1.7228   -1.0923   42.5169 H       1  ZINC000533037883    0.1300
     40 H40        -2.0017   -0.2921   44.8275 H       1  ZINC000533037883    0.1400
     41 H41         0.5683    2.8522   48.8337 H       1  ZINC000533037883    0.1900
     42 H42        -5.6572    4.8014   53.6611 H       1  ZINC000533037883    0.0700
     43 H43        -5.6424    5.6214   52.0785 H       1  ZINC000533037883    0.0800
     44 H44        -7.9530    5.4167   53.0640 H       1  ZINC000533037883    0.0800
     45 H45        -7.7916    4.6082   51.4859 H       1  ZINC000533037883    0.0700
     46 H46        -7.5768    3.2373   54.2049 H       1  ZINC000533037883    0.0700
     47 H47        -8.9934    3.1757   53.1294 H       1  ZINC000533037883    0.0700
     48 H48        -9.7301    1.0611   53.8655 H       1  ZINC000533037883    0.0800
     49 H49        -9.6801    1.1106   52.0701 H       1  ZINC000533037883    0.0800
     50 H50        -9.3704   -1.3133   53.9252 H       1  ZINC000533037883    0.0600
     51 H51       -10.3873   -1.1613   52.4604 H       1  ZINC000533037883    0.0900
     52 H52        -7.0403   -0.0727   51.1401 H       1  ZINC000533037883    0.0700
     53 H53        -6.3811   -0.8787   52.5894 H       1  ZINC000533037883    0.0700
     54 H54        -5.2981    1.4443   51.8519 H       1  ZINC000533037883    0.1000
     55 H55        -5.4306    2.0810   53.5116 H       1  ZINC000533037883    0.0700
@<TRIPOS>BOND
     1     1     2    2
     2     2     3   am
     3     2    17   am
     4     3     4    1
     5     3    30    1
     6     4     5    1
     7     4    31    1
     8     4    32    1
     9     5     6    1
    10     5    33    1
    11     5    34    1
    12     6    16    1
    13     6     7    2
    14     7     8    1
    15     7    35    1
    16     8     9    1
    17     8    15    1
    18     9    14   ar
    19     9    10   ar
    20    10    11   ar
    21    10    36    1
    22    11    12   ar
    23    11    37    1
    24    12    13   ar
    25    12    38    1
    26    13    14   ar
    27    13    39    1
    28    14    40    1
    29    15    16    2
    30    16    41    1
    31    17    29    1
    32    17    18    1
    33    18    19    1
    34    18    42    1
    35    18    43    1
    36    19    20    1
    37    19    44    1
    38    19    45    1
    39    20    21    1
    40    20    46    1
    41    20    47    1
    42    21    22    1
    43    21    23    1
    44    21    29    1
    45    23    24    1
    46    23    28    1
    47    23    25    1
    48    25    26    1
    49    25    48    1
    50    25    49    1
    51    26    27    1
    52    26    50    1
    53    26    51    1
    54    27    28    1
    55    28    52    1
    56    28    53    1
    57    29    54    1
    58    29    55    1
@<TRIPOS>SUBSTRUCTURE
     1 ZINC000533037883        1 TEMP              0 ****  ****    0 ROOT


##########                                Name:    ZINC000266467123
##########                DOCK_Rotatable_Bonds:                   9
##########                         Heavy_Atoms:                  25
##########                    Molecular_Weight:             337.421
##########                DOCK_Rotatable_Bonds:                   9
##########                       Formal_Charge:                0.02
##########                     HBond_Acceptors:                   5
##########                        HBond_Donors:                   3
##########                         Heavy_Atoms:                  25
##########                          Grid_Score:          -34.357525
##########                     Grid_vdw_energy:          -34.006340
##########                      Grid_es_energy:           -0.351185
##########           Internal_energy_repulsive:           10.975105

@<TRIPOS>MOLECULE
ZINC000266467123
 48 50 1 0 0
SMALL
USER_CHARGES


@<TRIPOS>ATOM
      1 C1         -0.4408    0.8356   48.9816 C.3     1  <0>        -0.1600
      2 C2         -1.0232    2.0186   48.2056 C.3     1  <0>         0.1500
      3 H3         -0.4874    2.9288   48.4750 H       1  <0>         0.1200
      4 N4         -2.4417    2.1703   48.5388 N.am    1  <0>        -0.7300
      5 C5         -2.8126    2.9665   49.5611 C.2     1  <0>         0.7100
      6 O6         -1.9699    3.5599   50.2059 O.2     1  <0>        -0.5900
      7 N7         -4.1175    3.1047   49.8685 N.am    1  <0>        -0.7100
      8 C8         -4.5206    3.9714   50.9786 C.3     1  <0>         0.1100
      9 H9         -3.9960    4.9245   51.0455 H       1  <0>         0.1400
     10 C10        -4.9293    3.2965   52.2895 C.3     1  <0>        -0.1900
     11 C11        -5.9918    3.9441   51.3979 C.3     1  <0>        -0.1500
     12 H12        -6.4349    4.8790   51.7410 H       1  <0>         0.1200
     13 C13        -6.9296    3.0133   50.6266 C.3     1  <0>        -0.0500
     14 C14        -7.4071    1.9127   51.5389 C.ar    1  <0>        -0.0800
     15 C15        -7.0860    0.5971   51.2614 C.ar    1  <0>        -0.1100
     16 C16        -7.5239   -0.4123   52.0982 C.ar    1  <0>        -0.1200
     17 C17        -8.2824   -0.1062   53.2124 C.ar    1  <0>        -0.1200
     18 C18        -8.6027    1.2095   53.4904 C.ar    1  <0>        -0.1200
     19 C19        -8.1612    2.2194   52.6560 C.ar    1  <0>        -0.1200
     20 C20        -0.8784    1.7694   46.7265 C.2     1  <0>         0.5100
     21 O21        -1.1065    2.6606   45.9361 O.2     1  <0>        -0.5100
     22 N22        -0.4954    0.5561   46.2819 N.am    1  <0>        -0.6700
     23 C23        -0.3609    0.3247   44.9085 C.ar    1  <0>         0.1400
     24 C24         0.7846    0.7395   44.2419 C.ar    1  <0>        -0.1400
     25 C25         0.9143    0.5095   42.8861 C.ar    1  <0>        -0.1000
     26 C26        -0.0951   -0.1325   42.1926 C.ar    1  <0>        -0.1300
     27 C27        -1.2371   -0.5464   42.8534 C.ar    1  <0>        -0.1000
     28 C28        -1.3701   -0.3254   44.2103 C.ar    1  <0>        -0.1200
     29 H29         0.6146    0.7227   48.7338 H       1  <0>         0.0700
     30 H30        -0.5456    1.0157   50.0515 H       1  <0>         0.0800
     31 H31        -0.9766   -0.0747   48.7123 H       1  <0>         0.0700
     32 H32        -3.1142    1.6978   48.0234 H       1  <0>         0.4100
     33 H33        -4.7897    2.6302   49.3547 H       1  <0>         0.4000
     34 H34        -4.8981    2.2076   52.3260 H       1  <0>         0.1000
     35 H35        -4.6738    3.8058   53.2187 H       1  <0>         0.1000
     36 H36        -7.7862    3.5807   50.2627 H       1  <0>         0.0800
     37 H37        -6.3960    2.5787   49.7814 H       1  <0>         0.0700
     38 H38        -6.4934    0.3579   50.3908 H       1  <0>         0.1200
     39 H39        -7.2737   -1.4403   51.8809 H       1  <0>         0.1200
     40 H40        -8.6251   -0.8949   53.8658 H       1  <0>         0.1200
     41 H41        -9.1955    1.4487   54.3608 H       1  <0>         0.1200
     42 H42        -8.4113    3.2473   52.8731 H       1  <0>         0.1200
     43 H43        -0.3129   -0.1566   46.9140 H       1  <0>         0.4100
     44 H44         1.5730    1.2415   44.7829 H       1  <0>         0.1300
     45 H45         1.8049    0.8319   42.3671 H       1  <0>         0.1300
     46 H46         0.0085   -0.3109   41.1325 H       1  <0>         0.1200
     47 H47        -2.0241   -1.0469   42.3088 H       1  <0>         0.1300
     48 H48        -2.2623   -0.6488   44.7259 H       1  <0>         0.1400
@<TRIPOS>BOND
     1     1     2    1
     2     1    29    1
     3     1    30    1
     4     1    31    1
     5     2     3    1
     6     2     4    1
     7     2    20    1
     8     4     5   am
     9     4    32    1
    10     5     6    2
    11     5     7   am
    12     7     8    1
    13     7    33    1
    14     8     9    1
    15     8    11    1
    16     8    10    1
    17    10    11    1
    18    10    34    1
    19    10    35    1
    20    11    12    1
    21    11    13    1
    22    13    14    1
    23    13    36    1
    24    13    37    1
    25    14    19   ar
    26    14    15   ar
    27    15    16   ar
    28    15    38    1
    29    16    17   ar
    30    16    39    1
    31    17    18   ar
    32    17    40    1
    33    18    19   ar
    34    18    41    1
    35    19    42    1
    36    20    21    2
    37    20    22   am
    38    22    23    1
    39    22    43    1
    40    23    28   ar
    41    23    24   ar
    42    24    25   ar
    43    24    44    1
    44    25    26   ar
    45    25    45    1
    46    26    27   ar
    47    26    46    1
    48    27    28   ar
    49    27    47    1
    50    28    48    1
@<TRIPOS>SUBSTRUCTURE
     1 <0>         1 TEMP              0 ****  ****    0 ROOT


##########                                Name:    ZINC001386869844
##########                DOCK_Rotatable_Bonds:                   9
##########                         Heavy_Atoms:                  25
##########                    Molecular_Weight:             345.485
##########                DOCK_Rotatable_Bonds:                   9
##########                       Formal_Charge:          -0.0300003
##########                     HBond_Acceptors:                   5
##########                        HBond_Donors:                   2
##########                         Heavy_Atoms:                  25
##########                          Grid_Score:          -34.357059
##########                     Grid_vdw_energy:          -33.501534
##########                      Grid_es_energy:           -0.855526
##########           Internal_energy_repulsive:           30.779207

@<TRIPOS>MOLECULE
ZINC001386869844
 56 58 1 0 0
SMALL
USER_CHARGES


@<TRIPOS>ATOM
      1 C1         -2.7062    4.1207   50.6687 C.3     1  ZINC001386869844    0.0600
      2 N2         -4.0805    3.6257   50.5561 N.am    1  ZINC001386869844   -0.6200
      3 C3         -5.1764    4.3542   51.1997 C.3     1  ZINC001386869844    0.1100
      4 C4         -5.4317    3.7679   52.5896 C.3     1  ZINC001386869844    0.1000
      5 N5         -6.5197    2.7897   52.5146 N.am    1  ZINC001386869844   -0.7300
      6 C6         -7.7883    3.1724   52.7614 C.2     1  ZINC001386869844    0.5200
      7 O7         -8.0283    4.3254   53.0506 O.2     1  ZINC001386869844   -0.5300
      8 C8         -8.9074    2.1661   52.6843 C.3     1  ZINC001386869844   -0.1300
      9 C9         -9.1685    1.5862   54.0758 C.3     1  ZINC001386869844   -0.0100
     10 C10        -7.8510    1.0962   54.6796 C.3     1  ZINC001386869844   -0.1500
     11 C11        -9.7702    2.6684   54.9746 C.3     1  ZINC001386869844   -0.1600
     12 C12       -10.1457    0.4142   53.9646 C.3     1  ZINC001386869844   -0.1500
     13 C13        -9.7449   -0.9052   54.6277 C.3     1  ZINC001386869844   -0.1900
     14 C14        -9.7244   -0.7775   53.1024 C.3     1  ZINC001386869844   -0.1800
     15 C15        -4.3364    2.5000   49.8605 C.2     1  ZINC001386869844    0.5900
     16 O16        -5.4778    2.0888   49.7670 O.2     1  ZINC001386869844   -0.5200
     17 C17        -3.2389    1.7706   49.2162 C.2     1  ZINC001386869844   -0.0600
     18 C18        -2.9246    1.7909   47.8721 C.2     1  ZINC001386869844   -0.0900
     19 C19        -1.8192    0.9617   47.7004 C.2     1  ZINC001386869844   -0.1700
     20 C20        -1.4800    0.4554   48.9157 C.2     1  ZINC001386869844    0.0500
     21 C21        -0.3274   -0.4945   49.1393 C.3     1  ZINC001386869844   -0.0600
     22 C22         0.0824   -1.0858   47.7853 C.3     1  ZINC001386869844   -0.1100
     23 C23         0.2734    0.0444   46.7702 C.3     1  ZINC001386869844   -0.1200
     24 C24        -1.0905    0.6498   46.4171 C.3     1  ZINC001386869844   -0.0500
     25 N25        -2.3309    0.9457   49.8438 N.pl3   1  ZINC001386869844   -0.5400
     26 H26        -2.1992    3.6032   51.4830 H       1  ZINC001386869844    0.0600
     27 H27        -2.1757    3.9358   49.7346 H       1  ZINC001386869844    0.0800
     28 H28        -2.7212    5.1914   50.8722 H       1  ZINC001386869844    0.0900
     29 H29        -6.0786    4.2617   50.5949 H       1  ZINC001386869844    0.1000
     30 H30        -4.9079    5.4065   51.2929 H       1  ZINC001386869844    0.0900
     31 H31        -5.7092    4.5679   53.2759 H       1  ZINC001386869844    0.0700
     32 H32        -4.5269    3.2781   52.9491 H       1  ZINC001386869844    0.0700
     33 H33        -6.3271    1.8665   52.2873 H       1  ZINC001386869844    0.4000
     34 H34        -9.8107    2.6545   52.3189 H       1  ZINC001386869844    0.0900
     35 H35        -8.6275    1.3629   52.0026 H       1  ZINC001386869844    0.0900
     36 H36        -7.1548    1.9311   54.7588 H       1  ZINC001386869844    0.0800
     37 H37        -8.0371    0.6830   55.6710 H       1  ZINC001386869844    0.0500
     38 H38        -7.4223    0.3252   54.0393 H       1  ZINC001386869844    0.0500
     39 H39       -10.7089    3.0175   54.5445 H       1  ZINC001386869844    0.0500
     40 H40        -9.9563    2.2552   55.9660 H       1  ZINC001386869844    0.0500
     41 H41        -9.0741    3.5033   55.0538 H       1  ZINC001386869844    0.0800
     42 H42       -11.2026    0.6807   53.9727 H       1  ZINC001386869844    0.1000
     43 H43        -8.7851   -0.9382   55.1431 H       1  ZINC001386869844    0.1000
     44 H44       -10.5381   -1.5066   55.0718 H       1  ZINC001386869844    0.0900
     45 H45       -10.5041   -1.2951   52.5436 H       1  ZINC001386869844    0.0900
     46 H46        -8.7511   -0.7265   52.6144 H       1  ZINC001386869844    0.0900
     47 H47        -3.4388    2.3445   47.1003 H       1  ZINC001386869844    0.1500
     48 H48         0.5141    0.0453   49.5738 H       1  ZINC001386869844    0.0800
     49 H49        -0.6366   -1.2953   49.8110 H       1  ZINC001386869844    0.0800
     50 H50         1.0170   -1.6354   47.8970 H       1  ZINC001386869844    0.0700
     51 H51        -0.6967   -1.7620   47.4336 H       1  ZINC001386869844    0.0700
     52 H52         0.9128    0.8152   47.2006 H       1  ZINC001386869844    0.0600
     53 H53         0.7395   -0.3523   45.8683 H       1  ZINC001386869844    0.0700
     54 H54        -1.6686   -0.0646   45.8309 H       1  ZINC001386869844    0.0700
     55 H55        -0.9482    1.5659   45.8437 H       1  ZINC001386869844    0.0700
     56 H56        -2.3077    0.7481   50.7931 H       1  ZINC001386869844    0.4200
@<TRIPOS>BOND
     1     1     2    1
     2     1    26    1
     3     1    27    1
     4     1    28    1
     5     2     3    1
     6     2    15   am
     7     3     4    1
     8     3    29    1
     9     3    30    1
    10     4     5    1
    11     4    31    1
    12     4    32    1
    13     5     6   am
    14     5    33    1
    15     6     7    2
    16     6     8    1
    17     8     9    1
    18     8    34    1
    19     8    35    1
    20     9    10    1
    21     9    11    1
    22     9    12    1
    23    10    36    1
    24    10    37    1
    25    10    38    1
    26    11    39    1
    27    11    40    1
    28    11    41    1
    29    12    14    1
    30    12    13    1
    31    12    42    1
    32    13    14    1
    33    13    43    1
    34    13    44    1
    35    14    45    1
    36    14    46    1
    37    15    16    2
    38    15    17    1
    39    17    25    1
    40    17    18    2
    41    18    19    1
    42    18    47    1
    43    19    24    1
    44    19    20    2
    45    20    21    1
    46    20    25    1
    47    21    22    1
    48    21    48    1
    49    21    49    1
    50    22    23    1
    51    22    50    1
    52    22    51    1
    53    23    24    1
    54    23    52    1
    55    23    53    1
    56    24    54    1
    57    24    55    1
    58    25    56    1
@<TRIPOS>SUBSTRUCTURE
     1 ZINC001386869844        1 TEMP              0 ****  ****    0 ROOT


##########                                Name:    ZINC000599228306
##########                DOCK_Rotatable_Bonds:                   8
##########                         Heavy_Atoms:                  25
##########                    Molecular_Weight:             379.382
##########                DOCK_Rotatable_Bonds:                   8
##########                       Formal_Charge:        -4.09782e-08
##########                     HBond_Acceptors:                  10
##########                        HBond_Donors:                   1
##########                         Heavy_Atoms:                  25
##########                          Grid_Score:          -34.300816
##########                     Grid_vdw_energy:          -34.418026
##########                      Grid_es_energy:            0.117211
##########           Internal_energy_repulsive:           41.758263

@<TRIPOS>MOLECULE
ZINC000599228306
 44 44 1 0 0
SMALL
USER_CHARGES


@<TRIPOS>ATOM
      1 C1         -0.6956   -0.8403   41.7899 C.3     1  ZINC000599228306    0.0400
      2 O2          0.0677   -0.3244   42.9122 O.3     1  ZINC000599228306   -0.3500
      3 C3         -0.6317    0.1784   43.9482 C.2     1  ZINC000599228306    0.5100
      4 O4         -1.8049    0.4613   43.8088 O.2     1  ZINC000599228306   -0.4800
      5 C5          0.0275    0.3856   45.2521 C.ar    1  ZINC000599228306   -0.1500
      6 C6          1.2275    1.0963   45.3267 C.ar    1  ZINC000599228306   -0.0100
      7 C7          1.8388    1.2863   46.5503 C.ar    1  ZINC000599228306    0.0700
      8 F8          2.9996    1.9736   46.6241 F       1  ZINC000599228306   -0.1200
      9 C9          1.2642    0.7742   47.7032 C.ar    1  ZINC000599228306    0.0100
     10 C10         0.0766    0.0696   47.6376 C.ar    1  ZINC000599228306   -0.7100
     11 S11        -0.6447   -0.5762   49.1098 S.o2    1  ZINC000599228306    2.7000
     12 O12        -1.1006   -1.8842   48.7927 O.2     1  ZINC000599228306   -0.9200
     13 O13         0.2750   -0.3067   50.1589 O.2     1  ZINC000599228306   -0.9300
     14 N14        -1.9964    0.3254   49.4297 N.am    1  ZINC000599228306   -1.1000
     15 C15        -1.8783    1.7681   49.6548 C.3     1  ZINC000599228306    0.1600
     16 H16        -0.9546    1.9771   50.1946 H       1  ZINC000599228306    0.1300
     17 C17        -1.8576    2.4944   48.3084 C.3     1  ZINC000599228306   -0.1700
     18 C18        -3.0539    2.2479   50.4665 C.2     1  ZINC000599228306    0.4700
     19 O19        -2.9324    3.1984   51.2024 O.2     1  ZINC000599228306   -0.4900
     20 O20        -4.2360    1.6191   50.3720 O.3     1  ZINC000599228306   -0.3400
     21 C21        -5.3487    2.1931   51.1073 C.3     1  ZINC000599228306    0.1200
     22 C22        -5.0255    2.1941   52.6027 C.3     1  ZINC000599228306   -0.1900
     23 C23        -5.5851    3.6293   50.6357 C.3     1  ZINC000599228306   -0.1400
     24 C24        -6.6082    1.3608   50.8582 C.3     1  ZINC000599228306   -0.1800
     25 C25        -0.5496   -0.1240   46.4202 C.ar    1  ZINC000599228306    0.2500
     26 F26        -1.7105   -0.8123   46.3577 F       1  ZINC000599228306   -0.0900
     27 H27        -0.0127   -1.2137   41.0270 H       1  ZINC000599228306    0.1100
     28 H28        -1.3389   -1.6517   42.1304 H       1  ZINC000599228306    0.0700
     29 H29        -1.3086   -0.0426   41.3700 H       1  ZINC000599228306    0.0700
     30 H30         1.6766    1.4960   44.4295 H       1  ZINC000599228306    0.1700
     31 H31         1.7468    0.9259   48.6573 H       1  ZINC000599228306    0.1800
     32 H32        -2.8665   -0.1017   49.4679 H       1  ZINC000599228306    0.4300
     33 H33        -1.7696    3.5680   48.4760 H       1  ZINC000599228306    0.0900
     34 H34        -1.0072    2.1475   47.7214 H       1  ZINC000599228306    0.0700
     35 H35        -2.7812    2.2854   47.7687 H       1  ZINC000599228306    0.0800
     36 H36        -4.1283    2.7870   52.7802 H       1  ZINC000599228306    0.0600
     37 H37        -5.8609    2.6249   53.1547 H       1  ZINC000599228306    0.0700
     38 H38        -4.8572    1.1708   52.9388 H       1  ZINC000599228306    0.0800
     39 H39        -5.8153    3.6286   49.5703 H       1  ZINC000599228306    0.0700
     40 H40        -6.4204    4.0602   51.1877 H       1  ZINC000599228306    0.0800
     41 H41        -4.6878    4.2223   50.8131 H       1  ZINC000599228306    0.0700
     42 H42        -6.4398    0.3376   51.1942 H       1  ZINC000599228306    0.0800
     43 H43        -7.4435    1.7917   51.4102 H       1  ZINC000599228306    0.0700
     44 H44        -6.8384    1.3601   49.7928 H       1  ZINC000599228306    0.0600
@<TRIPOS>BOND
     1     1     2    1
     2     1    27    1
     3     1    28    1
     4     1    29    1
     5     2     3    1
     6     3     4    2
     7     3     5    1
     8     5    25   ar
     9     5     6   ar
    10     6     7   ar
    11     6    30    1
    12     7     8    1
    13     7     9   ar
    14     9    10   ar
    15     9    31    1
    16    10    11    1
    17    10    25   ar
    18    11    12    2
    19    11    13    2
    20    11    14   am
    21    14    15    1
    22    14    32    1
    23    15    16    1
    24    15    17    1
    25    15    18    1
    26    17    33    1
    27    17    34    1
    28    17    35    1
    29    18    19    2
    30    18    20    1
    31    20    21    1
    32    21    22    1
    33    21    23    1
    34    21    24    1
    35    22    36    1
    36    22    37    1
    37    22    38    1
    38    23    39    1
    39    23    40    1
    40    23    41    1
    41    24    42    1
    42    24    43    1
    43    24    44    1
    44    25    26    1
@<TRIPOS>SUBSTRUCTURE
     1 ZINC000599228306        1 TEMP              0 ****  ****    0 ROOT


##########                                Name:    ZINC000655235556
##########                DOCK_Rotatable_Bonds:                   6
##########                         Heavy_Atoms:                  23
##########                    Molecular_Weight:             336.778
##########                DOCK_Rotatable_Bonds:                   6
##########                       Formal_Charge:         -0.00999996
##########                     HBond_Acceptors:                   8
##########                        HBond_Donors:                   2
##########                         Heavy_Atoms:                  23
##########                          Grid_Score:          -34.290108
##########                     Grid_vdw_energy:          -32.627701
##########                      Grid_es_energy:           -1.662405
##########           Internal_energy_repulsive:           10.896719

@<TRIPOS>MOLECULE
ZINC000655235556
 40 42 1 0 0
SMALL
USER_CHARGES


@<TRIPOS>ATOM
      1 C1        -10.4676   -0.9839   53.5547 C.3     1  ZINC000655235556    0.0200
      2 O2         -9.3044   -0.2717   53.1281 O.3     1  ZINC000655235556   -0.2700
      3 C3         -8.6672    0.4811   54.0595 C.ar    1  ZINC000655235556    0.2000
      4 C4         -9.1768    0.5763   55.3449 C.ar    1  ZINC000655235556   -0.2100
      5 C5         -8.5258    1.3435   56.2931 C.ar    1  ZINC000655235556    0.0300
      6 Cl6        -9.1698    1.4581   57.9011 Cl      1  ZINC000655235556   -0.0500
      7 C7         -7.3611    2.0215   55.9668 C.ar    1  ZINC000655235556   -0.1600
      8 C8         -6.8416    1.9373   54.6936 C.ar    1  ZINC000655235556   -0.0300
      9 C9         -7.4870    1.1614   53.7275 C.ar    1  ZINC000655235556   -0.1700
     10 C10        -6.9356    1.0670   52.3630 C.2     1  ZINC000655235556    0.5700
     11 O11        -6.4230    0.0311   51.9847 O.2     1  ZINC000655235556   -0.5100
     12 N12        -6.9996    2.1286   51.5352 N.am    1  ZINC000655235556   -0.7300
     13 C13        -6.4534    2.0342   50.1791 C.3     1  ZINC000655235556    0.2100
     14 C14        -4.9718    2.3074   50.2142 C.2     1  ZINC000655235556    0.2600
     15 N15        -4.0687    1.7455   49.4523 N.2     1  ZINC000655235556   -0.5100
     16 C16        -2.8620    2.2226   49.7547 C.2     1  ZINC000655235556    0.2200
     17 C17        -1.5696    1.8185   49.0932 C.3     1  ZINC000655235556    0.1700
     18 H18        -0.8831    2.6649   49.0752 H       1  ZINC000655235556    0.1100
     19 C19        -1.8466    1.3381   47.6524 C.3     1  ZINC000655235556   -0.1400
     20 C20        -0.8721    0.1369   47.5124 C.3     1  ZINC000655235556   -0.1500
     21 C21        -0.8908   -0.4267   48.9556 C.3     1  ZINC000655235556    0.0500
     22 O22        -0.9779    0.7279   49.8088 O.3     1  ZINC000655235556   -0.3700
     23 N23        -2.9810    3.0985   50.7176 N.2     1  ZINC000655235556   -0.2800
     24 N24        -4.3482    3.1751   51.0298 N.pl3   1  ZINC000655235556   -0.4700
     25 H25       -10.1983   -1.6737   54.3546 H       1  ZINC000655235556    0.0600
     26 H26       -11.2128   -0.2772   53.9200 H       1  ZINC000655235556    0.0600
     27 H27       -10.8790   -1.5440   52.7150 H       1  ZINC000655235556    0.1100
     28 H28       -10.0834    0.0508   55.6061 H       1  ZINC000655235556    0.1500
     29 H29        -6.8593    2.6185   56.7139 H       1  ZINC000655235556    0.1400
     30 H30        -5.9344    2.4673   54.4438 H       1  ZINC000655235556    0.1400
     31 H31        -7.4074    2.9553   51.8374 H       1  ZINC000655235556    0.4000
     32 H32        -6.6290    1.0330   49.7856 H       1  ZINC000655235556    0.1000
     33 H33        -6.9430    2.7675   49.5383 H       1  ZINC000655235556    0.1100
     34 H34        -2.8813    1.0129   47.5441 H       1  ZINC000655235556    0.0800
     35 H35        -1.6065    2.1186   46.9304 H       1  ZINC000655235556    0.0900
     36 H36        -1.2512   -0.5954   46.7996 H       1  ZINC000655235556    0.0900
     37 H37         0.1271    0.4721   47.2344 H       1  ZINC000655235556    0.0800
     38 H38        -1.7587   -1.0704   49.0991 H       1  ZINC000655235556    0.0600
     39 H39         0.0275   -0.9777   49.1584 H       1  ZINC000655235556    0.0900
     40 H40        -4.7598    3.7375   51.7045 H       1  ZINC000655235556    0.4400
@<TRIPOS>BOND
     1     1     2    1
     2     1    25    1
     3     1    26    1
     4     1    27    1
     5     2     3    1
     6     3     9   ar
     7     3     4   ar
     8     4     5   ar
     9     4    28    1
    10     5     6    1
    11     5     7   ar
    12     7     8   ar
    13     7    29    1
    14     8     9   ar
    15     8    30    1
    16     9    10    1
    17    10    11    2
    18    10    12   am
    19    12    13    1
    20    12    31    1
    21    13    14    1
    22    13    32    1
    23    13    33    1
    24    14    24    1
    25    14    15    2
    26    15    16    1
    27    16    17    1
    28    16    23    2
    29    17    18    1
    30    17    22    1
    31    17    19    1
    32    19    20    1
    33    19    34    1
    34    19    35    1
    35    20    21    1
    36    20    36    1
    37    20    37    1
    38    21    22    1
    39    21    38    1
    40    21    39    1
    41    23    24    1
    42    24    40    1
@<TRIPOS>SUBSTRUCTURE
     1 ZINC000655235556        1 TEMP              0 ****  ****    0 ROOT


##########                                Name:    ZINC000880838037
##########                DOCK_Rotatable_Bonds:                   9
##########                         Heavy_Atoms:                  24
##########                    Molecular_Weight:             365.477
##########                DOCK_Rotatable_Bonds:                   9
##########                       Formal_Charge:           0.0200001
##########                     HBond_Acceptors:                   8
##########                        HBond_Donors:                   3
##########                         Heavy_Atoms:                  24
##########                          Grid_Score:          -34.255375
##########                     Grid_vdw_energy:          -32.965576
##########                      Grid_es_energy:           -1.289799
##########           Internal_energy_repulsive:           11.325372

@<TRIPOS>MOLECULE
ZINC000880838037
 43 44 1 0 0
SMALL
USER_CHARGES


@<TRIPOS>ATOM
      1 C1         -6.5678    2.5387   58.0663 C.3     1  ZINC000880838037    0.0300
      2 O2         -7.4400    3.1166   57.0928 O.3     1  ZINC000880838037   -0.3100
      3 C3         -7.7796    2.3401   56.0305 C.ar    1  ZINC000880838037    0.1400
      4 C4         -8.5253    1.1860   56.2244 C.ar    1  ZINC000880838037   -0.2200
      5 C5         -8.8715    0.3952   55.1450 C.ar    1  ZINC000880838037   -0.0700
      6 C6         -8.4759    0.7506   53.8702 C.ar    1  ZINC000880838037   -0.1500
      7 C7         -7.7288    1.9047   53.6702 C.ar    1  ZINC000880838037    0.1800
      8 N8         -7.3281    2.2648   52.3788 N.am    1  ZINC000880838037   -0.6700
      9 C9         -6.5491    1.4336   51.6586 C.2     1  ZINC000880838037    0.5200
     10 O10        -6.1954    0.3735   52.1298 O.2     1  ZINC000880838037   -0.4900
     11 C11        -6.1176    1.8214   50.2678 C.3     1  ZINC000880838037   -0.0600
     12 C12        -4.7392    2.4285   50.3204 C.2     1  ZINC000880838037    0.1000
     13 C13        -4.5172    3.6769   50.7330 C.2     1  ZINC000880838037   -0.2600
     14 S14        -2.7851    3.9845   50.6391 S.3     1  ZINC000880838037    0.1300
     15 C15        -2.5247    2.4000   50.0521 C.2     1  ZINC000880838037    0.0100
     16 S16        -0.9523    1.7247   49.6321 S.3     1  ZINC000880838037    0.1000
     17 C17        -1.4762    0.2699   48.6913 C.3     1  ZINC000880838037   -0.1500
     18 H18        -2.3885   -0.1361   49.1282 H       1  ZINC000880838037    0.1200
     19 C19        -0.3738   -0.7901   48.7353 C.3     1  ZINC000880838037   -0.1500
     20 C20        -1.7370    0.6643   47.2603 C.2     1  ZINC000880838037    0.5400
     21 N21        -2.0990    1.9285   46.9650 N.am    1  ZINC000880838037   -0.8400
     22 O22        -1.6210   -0.1559   46.3745 O.2     1  ZINC000880838037   -0.5200
     23 N23        -3.6532    1.7651   49.9667 N.2     1  ZINC000880838037   -0.4200
     24 C24        -7.3860    2.7033   54.7519 C.ar    1  ZINC000880838037   -0.1500
     25 C25        -6.5757    3.9559   54.5388 C.3     1  ZINC000880838037   -0.1000
     26 H26        -5.6259    2.2630   57.5920 H       1  ZINC000880838037    0.0600
     27 H27        -6.3774    3.2626   58.8588 H       1  ZINC000880838037    0.1000
     28 H28        -7.0348    1.6500   58.4906 H       1  ZINC000880838037    0.0600
     29 H29        -8.8354    0.9052   57.2201 H       1  ZINC000880838037    0.1300
     30 H30        -9.4518   -0.5025   55.2986 H       1  ZINC000880838037    0.1300
     31 H31        -8.7473    0.1308   53.0284 H       1  ZINC000880838037    0.1400
     32 H32        -7.6111    3.1126   52.0020 H       1  ZINC000880838037    0.4100
     33 H33        -6.1006    0.9359   49.6324 H       1  ZINC000880838037    0.1200
     34 H34        -6.8194    2.5484   49.8591 H       1  ZINC000880838037    0.1200
     35 H35        -5.2684    4.3776   51.0663 H       1  ZINC000880838037    0.1800
     36 H36         0.5384   -0.3840   48.2984 H       1  ZINC000880838037    0.0900
     37 H37        -0.1852   -1.0754   49.7703 H       1  ZINC000880838037    0.0800
     38 H38        -0.6893   -1.6662   48.1688 H       1  ZINC000880838037    0.0800
     39 H39        -2.2657    2.1826   46.0438 H       1  ZINC000880838037    0.4000
     40 H40        -2.1929    2.5842   47.6736 H       1  ZINC000880838037    0.4100
     41 H41        -7.2464    4.7971   54.3637 H       1  ZINC000880838037    0.0700
     42 H42        -5.9703    4.1520   55.4238 H       1  ZINC000880838037    0.0700
     43 H43        -5.9243    3.8246   53.6748 H       1  ZINC000880838037    0.0600
@<TRIPOS>BOND
     1     1     2    1
     2     1    26    1
     3     1    27    1
     4     1    28    1
     5     2     3    1
     6     3    24   ar
     7     3     4   ar
     8     4     5   ar
     9     4    29    1
    10     5     6   ar
    11     5    30    1
    12     6     7   ar
    13     6    31    1
    14     7     8    1
    15     7    24   ar
    16     8     9   am
    17     8    32    1
    18     9    10    2
    19     9    11    1
    20    11    12    1
    21    11    33    1
    22    11    34    1
    23    12    23    1
    24    12    13    2
    25    13    14    1
    26    13    35    1
    27    14    15    1
    28    15    16    1
    29    15    23    2
    30    16    17    1
    31    17    18    1
    32    17    19    1
    33    17    20    1
    34    19    36    1
    35    19    37    1
    36    19    38    1
    37    20    21   am
    38    20    22    2
    39    21    39    1
    40    21    40    1
    41    24    25    1
    42    25    41    1
    43    25    42    1
    44    25    43    1
@<TRIPOS>SUBSTRUCTURE
     1 ZINC000880838037        1 TEMP              0 ****  ****    0 ROOT


##########                                Name:    ZINC000851838607
##########                DOCK_Rotatable_Bonds:                  12
##########                         Heavy_Atoms:                  23
##########                    Molecular_Weight:             352.495
##########                DOCK_Rotatable_Bonds:                  12
##########                       Formal_Charge:          0.00999896
##########                     HBond_Acceptors:                   8
##########                        HBond_Donors:                   2
##########                         Heavy_Atoms:                  23
##########                          Grid_Score:          -34.248436
##########                     Grid_vdw_energy:          -34.556908
##########                      Grid_es_energy:            0.308470
##########           Internal_energy_repulsive:           23.444702

@<TRIPOS>MOLECULE
ZINC000851838607
 55 54 1 0 0
SMALL
USER_CHARGES


@<TRIPOS>ATOM
      1 C1         -8.4415   -0.6085   52.6401 C.3     1  ZINC000851838607    0.0300
      2 O2         -8.0586    0.2448   53.7206 O.3     1  ZINC000851838607   -0.3800
      3 C3         -6.9097    1.0494   53.4470 C.3     1  ZINC000851838607    0.0800
      4 C4         -7.3175    2.2431   52.5812 C.3     1  ZINC000851838607   -0.6000
      5 H5         -8.3953    2.2234   52.4197 H       1  ZINC000851838607    0.1400
      6 C6         -6.9318    3.5429   53.2904 C.3     1  ZINC000851838607   -0.1400
      7 S7         -6.4646    2.1503   50.9829 S.o2    1  ZINC000851838607    2.6200
      8 O8         -6.4711    0.8172   50.4910 O.2     1  ZINC000851838607   -0.9400
      9 O9         -6.8424    3.2396   50.1523 O.2     1  ZINC000851838607   -0.9500
     10 N10        -4.8756    2.4445   51.3448 N.am    1  ZINC000851838607   -1.1200
     11 C11        -3.8704    2.4495   50.2792 C.3     1  ZINC000851838607    0.1100
     12 C12        -2.6392    3.2304   50.7431 C.3     1  ZINC000851838607   -0.1400
     13 C13        -1.4037    2.7266   49.9943 C.3     1  ZINC000851838607    0.1700
     14 H14        -1.0503    1.8044   50.4555 H       1  ZINC000851838607    0.1000
     15 N15        -1.7519    2.4704   48.5945 N.am    1  ZINC000851838607   -0.7100
     16 C16        -1.7961    1.2053   48.1318 C.2     1  ZINC000851838607    0.6500
     17 O17        -1.5486    0.2771   48.8761 O.2     1  ZINC000851838607   -0.5600
     18 O18        -2.1145    0.9698   46.8451 O.3     1  ZINC000851838607   -0.3700
     19 C19        -1.0437    1.0792   45.8704 C.3     1  ZINC000851838607    0.1400
     20 C20        -1.3924    0.2478   44.6342 C.3     1  ZINC000851838607   -0.1800
     21 C21        -0.8690    2.5446   45.4669 C.3     1  ZINC000851838607   -0.1400
     22 C22         0.2587    0.5603   46.4832 C.3     1  ZINC000851838607   -0.1800
     23 C23        -0.3008    3.7850   50.0600 C.3     1  ZINC000851838607   -0.1100
     24 C24         0.0109    4.1065   51.5230 C.3     1  ZINC000851838607   -0.1500
     25 C25         0.9592    3.2515   49.3753 C.3     1  ZINC000851838607   -0.1400
     26 H26        -8.6739   -0.0032   51.7639 H       1  ZINC000851838607    0.0400
     27 H27        -7.6217   -1.2875   52.4054 H       1  ZINC000851838607    0.0500
     28 H28        -9.3206   -1.1855   52.9268 H       1  ZINC000851838607    0.0900
     29 H29        -6.4861    1.4085   54.3848 H       1  ZINC000851838607    0.0700
     30 H30        -6.1666    0.4533   52.9172 H       1  ZINC000851838607    0.0600
     31 H31        -7.1389    4.3893   52.6356 H       1  ZINC000851838607    0.0700
     32 H32        -7.5124    3.6424   54.2075 H       1  ZINC000851838607    0.0900
     33 H33        -5.8694    3.5227   53.5333 H       1  ZINC000851838607    0.0700
     34 H34        -4.6105    2.6136   52.2625 H       1  ZINC000851838607    0.4200
     35 H35        -3.5836    1.4242   50.0454 H       1  ZINC000851838607    0.0700
     36 H36        -4.2865    2.9222   49.3894 H       1  ZINC000851838607    0.0800
     37 H37        -2.7823    4.2909   50.5359 H       1  ZINC000851838607    0.0800
     38 H38        -2.4992    3.0851   51.8142 H       1  ZINC000851838607    0.1000
     39 H39        -1.9507    3.2111   48.0007 H       1  ZINC000851838607    0.4100
     40 H40        -2.3202    0.6175   44.1976 H       1  ZINC000851838607    0.0600
     41 H41        -0.5885    0.3299   43.9027 H       1  ZINC000851838607    0.0700
     42 H42        -1.5168   -0.7962   44.9217 H       1  ZINC000851838607    0.0900
     43 H43        -0.6207    3.1369   46.3476 H       1  ZINC000851838607    0.0700
     44 H44        -0.0653    2.6267   44.7352 H       1  ZINC000851838607    0.0800
     45 H45        -1.7968    2.9142   45.0302 H       1  ZINC000851838607    0.0700
     46 H46         0.1343   -0.4837   46.7708 H       1  ZINC000851838607    0.0900
     47 H47         1.0625    0.6424   45.7517 H       1  ZINC000851838607    0.0700
     48 H48         0.5071    1.1526   47.3640 H       1  ZINC000851838607    0.0600
     49 H49        -0.6348    4.6898   49.5523 H       1  ZINC000851838607    0.0700
     50 H50         0.3449    3.2017   52.0307 H       1  ZINC000851838607    0.0600
     51 H51         0.7967    4.8605   51.5697 H       1  ZINC000851838607    0.0600
     52 H52        -0.8867    4.4865   52.0107 H       1  ZINC000851838607    0.0600
     53 H53         0.7372    3.0224   48.3331 H       1  ZINC000851838607    0.0500
     54 H54         1.7450    4.0055   49.4222 H       1  ZINC000851838607    0.0500
     55 H55         1.2933    2.3467   49.8831 H       1  ZINC000851838607    0.0700
@<TRIPOS>BOND
     1     1     2    1
     2     1    26    1
     3     1    27    1
     4     1    28    1
     5     2     3    1
     6     3     4    1
     7     3    29    1
     8     3    30    1
     9     4     5    1
    10     4     6    1
    11     4     7    1
    12     6    31    1
    13     6    32    1
    14     6    33    1
    15     7     8    2
    16     7     9    2
    17     7    10   am
    18    10    11    1
    19    10    34    1
    20    11    12    1
    21    11    35    1
    22    11    36    1
    23    12    13    1
    24    12    37    1
    25    12    38    1
    26    13    14    1
    27    13    15    1
    28    13    23    1
    29    15    16   am
    30    15    39    1
    31    16    17    2
    32    16    18    1
    33    18    19    1
    34    19    20    1
    35    19    21    1
    36    19    22    1
    37    20    40    1
    38    20    41    1
    39    20    42    1
    40    21    43    1
    41    21    44    1
    42    21    45    1
    43    22    46    1
    44    22    47    1
    45    22    48    1
    46    23    24    1
    47    23    25    1
    48    23    49    1
    49    24    50    1
    50    24    51    1
    51    24    52    1
    52    25    53    1
    53    25    54    1
    54    25    55    1
@<TRIPOS>SUBSTRUCTURE
     1 ZINC000851838607        1 TEMP              0 ****  ****    0 ROOT


##########                                Name:    ZINC000186105981
##########                DOCK_Rotatable_Bonds:                   6
##########                         Heavy_Atoms:                  26
##########                    Molecular_Weight:             396.873
##########                DOCK_Rotatable_Bonds:                   6
##########                       Formal_Charge:          -0.0400003
##########                     HBond_Acceptors:                   9
##########                        HBond_Donors:                   1
##########                         Heavy_Atoms:                  26
##########                          Grid_Score:          -34.245274
##########                     Grid_vdw_energy:          -33.355015
##########                      Grid_es_energy:           -0.890257
##########           Internal_energy_repulsive:           15.848923

@<TRIPOS>MOLECULE
ZINC000186105981
 44 46 1 0 0
SMALL
USER_CHARGES


@<TRIPOS>ATOM
      1 C1          1.2972    3.5039   49.7500 C.3     1  ZINC000186105981   -0.1400
      2 C2          0.0053    2.8410   50.2321 C.3     1  ZINC000186105981   -0.1100
      3 C3         -0.6685    3.7353   51.2748 C.3     1  ZINC000186105981   -0.1600
      4 C4         -0.9391    2.6411   49.0452 C.3     1  ZINC000186105981    0.1600
      5 H5         -1.0947    3.5943   48.5400 H       1  ZINC000186105981    0.1200
      6 C6         -2.2613    2.1124   49.5386 C.2     1  ZINC000186105981    0.4900
      7 O7         -2.4491    0.9161   49.6058 O.2     1  ZINC000186105981   -0.4300
      8 N8         -3.2351    2.9690   49.9053 N.am    1  ZINC000186105981   -0.6300
      9 C9         -4.4543    2.4815   50.3604 C.2     1  ZINC000186105981    0.2400
     10 N10        -5.3194    1.8046   49.6602 N.2     1  ZINC000186105981   -0.2600
     11 N11        -6.3803    1.4374   50.2346 N.2     1  ZINC000186105981   -0.2000
     12 C12        -6.5340    1.7619   51.4877 C.2     1  ZINC000186105981    0.0300
     13 C13        -7.6970    1.4292   52.3370 C.ar    1  ZINC000186105981   -0.0500
     14 C14        -8.4868    2.4479   52.8765 C.ar    1  ZINC000186105981    0.1300
     15 F15        -8.1896    3.7414   52.6236 F       1  ZINC000186105981   -0.1200
     16 C16        -9.5731    2.1286   53.6694 C.ar    1  ZINC000186105981   -0.1400
     17 C17        -9.8786    0.8050   53.9285 C.ar    1  ZINC000186105981   -0.0600
     18 C18        -9.1004   -0.2085   53.3977 C.ar    1  ZINC000186105981   -0.1200
     19 C19        -8.0156    0.0948   52.5992 C.ar    1  ZINC000186105981    0.0200
     20 Cl20       -7.0415   -1.1790   51.9342 Cl      1  ZINC000186105981   -0.0100
     21 S21        -5.1025    2.6626   51.9917 S.3     1  ZINC000186105981    0.1200
     22 N22        -0.3491    1.6822   48.1078 N.am    1  ZINC000186105981   -0.6100
     23 C23         0.3624    0.4627   48.5089 C.3     1  ZINC000186105981    0.1000
     24 C24         0.4101   -0.4217   47.2432 C.3     1  ZINC000186105981   -0.1300
     25 C25         0.3082    0.6332   46.1174 C.3     1  ZINC000186105981   -0.1600
     26 C26        -0.3947    1.8031   46.7698 C.2     1  ZINC000186105981    0.5200
     27 O27        -0.9170    2.7205   46.1728 O.2     1  ZINC000186105981   -0.5000
     28 H28         1.9699    3.6463   50.5957 H       1  ZINC000186105981    0.0600
     29 H29         1.7771    2.8668   49.0072 H       1  ZINC000186105981    0.0600
     30 H30         1.0647    4.4708   49.3036 H       1  ZINC000186105981    0.0600
     31 H31         0.2377    1.8741   50.6785 H       1  ZINC000186105981    0.0900
     32 H32        -0.9851    4.6665   50.8049 H       1  ZINC000186105981    0.0600
     33 H33        -1.5376    3.2222   51.6864 H       1  ZINC000186105981    0.0600
     34 H34         0.0372    3.9544   52.0761 H       1  ZINC000186105981    0.0700
     35 H35        -3.0848    3.9258   49.8516 H       1  ZINC000186105981    0.4200
     36 H36       -10.1845    2.9145   54.0875 H       1  ZINC000186105981    0.1500
     37 H37       -10.7285    0.5612   54.5486 H       1  ZINC000186105981    0.1500
     38 H38        -9.3449   -1.2399   53.6048 H       1  ZINC000186105981    0.1500
     39 H39         1.3728    0.7063   48.8372 H       1  ZINC000186105981    0.0700
     40 H40        -0.1811   -0.0465   49.3048 H       1  ZINC000186105981    0.0800
     41 H41         1.3523   -0.9664   47.1832 H       1  ZINC000186105981    0.0900
     42 H42        -0.4373   -1.1067   47.2139 H       1  ZINC000186105981    0.0800
     43 H43         1.3016    0.9228   45.7748 H       1  ZINC000186105981    0.1100
     44 H44        -0.2857    0.2495   45.2876 H       1  ZINC000186105981    0.1000
@<TRIPOS>BOND
     1     1     2    1
     2     1    28    1
     3     1    29    1
     4     1    30    1
     5     2     3    1
     6     2     4    1
     7     2    31    1
     8     3    32    1
     9     3    33    1
    10     3    34    1
    11     4     5    1
    12     4     6    1
    13     4    22    1
    14     6     7    2
    15     6     8   am
    16     8     9    1
    17     8    35    1
    18     9    21    1
    19     9    10    2
    20    10    11    1
    21    11    12    2
    22    12    13    1
    23    12    21    1
    24    13    19   ar
    25    13    14   ar
    26    14    15    1
    27    14    16   ar
    28    16    17   ar
    29    16    36    1
    30    17    18   ar
    31    17    37    1
    32    18    19   ar
    33    18    38    1
    34    19    20    1
    35    22    26   am
    36    22    23    1
    37    23    24    1
    38    23    39    1
    39    23    40    1
    40    24    25    1
    41    24    41    1
    42    24    42    1
    43    25    26    1
    44    25    43    1
    45    25    44    1
    46    26    27    2
@<TRIPOS>SUBSTRUCTURE
     1 ZINC000186105981        1 TEMP              0 ****  ****    0 ROOT


##########                                Name:    ZINC000263872566
##########                DOCK_Rotatable_Bonds:                   9
##########                         Heavy_Atoms:                  26
##########                    Molecular_Weight:             362.469
##########                DOCK_Rotatable_Bonds:                   9
##########                       Formal_Charge:           0.0300001
##########                     HBond_Acceptors:                   6
##########                        HBond_Donors:                   2
##########                         Heavy_Atoms:                  26
##########                          Grid_Score:          -34.236965
##########                     Grid_vdw_energy:          -32.704166
##########                      Grid_es_energy:           -1.532799
##########           Internal_energy_repulsive:           22.425425

@<TRIPOS>MOLECULE
ZINC000263872566
 56 57 1 0 0
SMALL
USER_CHARGES


@<TRIPOS>ATOM
      1 C1          4.2533   -0.1214   41.4723 C.3     1  ZINC000263872566   -0.1800
      2 C2          3.2508    1.0204   41.2929 C.3     1  ZINC000263872566    0.1400
      3 H3          3.6693    1.9392   41.7038 H       1  ZINC000263872566    0.0700
      4 O4          2.9789    1.2014   39.9018 O.3     1  ZINC000263872566   -0.5600
      5 C5          1.9717    0.6840   42.0152 C.ar    1  ZINC000263872566   -0.0800
      6 C6          1.8038    1.0599   43.3348 C.ar    1  ZINC000263872566   -0.0900
      7 C7          0.6306    0.7514   43.9975 C.ar    1  ZINC000263872566   -0.1000
      8 C8         -0.3750    0.0675   43.3403 C.ar    1  ZINC000263872566   -0.1100
      9 C9         -1.6541   -0.2692   44.0628 C.3     1  ZINC000263872566    0.1800
     10 N10        -1.6905    0.4368   45.3459 N.am    1  ZINC000263872566   -0.7400
     11 C11        -1.3332   -0.2027   46.4772 C.2     1  ZINC000263872566    0.7100
     12 O12        -0.9807   -1.3655   46.4329 O.2     1  ZINC000263872566   -0.5900
     13 N13        -1.3666    0.4468   47.6578 N.am    1  ZINC000263872566   -0.6300
     14 C14        -0.9744   -0.2350   48.8987 C.3     1  ZINC000263872566    0.1100
     15 C15         0.1000    0.6003   49.6019 C.3     1  ZINC000263872566   -0.1200
     16 C16        -0.4192    2.0255   49.8049 C.3     1  ZINC000263872566   -0.0800
     17 C17         0.6221    2.8412   50.5269 C.2     1  ZINC000263872566    0.4700
     18 O18         1.6089    3.2175   49.9397 O.2     1  ZINC000263872566   -0.5000
     19 O19         0.4535    3.1498   51.8223 O.3     1  ZINC000263872566   -0.3500
     20 C20         0.2493    4.5508   52.1450 C.3     1  ZINC000263872566    0.1200
     21 C21         1.6055    5.2470   52.2750 C.3     1  ZINC000263872566   -0.1800
     22 C22        -0.5617    5.2175   51.0321 C.3     1  ZINC000263872566   -0.1400
     23 C23        -0.5110    4.6639   53.4678 C.3     1  ZINC000263872566   -0.1800
     24 C24        -0.7124    2.6621   48.4444 C.3     1  ZINC000263872566   -0.1300
     25 C25        -1.7904    1.8520   47.7273 C.3     1  ZINC000263872566    0.1300
     26 C26        -0.2077   -0.3071   42.0202 C.ar    1  ZINC000263872566   -0.1000
     27 C27         0.9640    0.0046   41.3565 C.ar    1  ZINC000263872566   -0.1100
     28 H28         3.8349   -1.0401   41.0614 H       1  ZINC000263872566    0.0700
     29 H29         5.1786    0.1220   40.9499 H       1  ZINC000263872566    0.0600
     30 H30         4.4607   -0.2594   42.5334 H       1  ZINC000263872566    0.0700
     31 H31         2.6042    0.4217   39.4695 H       1  ZINC000263872566    0.3800
     32 H32         2.5895    1.5942   43.8483 H       1  ZINC000263872566    0.1300
     33 H33         0.4996    1.0444   45.0287 H       1  ZINC000263872566    0.1300
     34 H34        -2.5058    0.0367   43.4553 H       1  ZINC000263872566    0.0800
     35 H35        -1.7001   -1.3440   44.2381 H       1  ZINC000263872566    0.0800
     36 H36        -1.9717    1.3645   45.3813 H       1  ZINC000263872566    0.4000
     37 H37        -1.8427   -0.3366   49.5499 H       1  ZINC000263872566    0.0800
     38 H38        -0.5745   -1.2213   48.6630 H       1  ZINC000263872566    0.0800
     39 H39         0.3308    0.1558   50.5700 H       1  ZINC000263872566    0.0900
     40 H40         1.0008    0.6252   48.9886 H       1  ZINC000263872566    0.0800
     41 H41        -1.3338    1.9978   50.3973 H       1  ZINC000263872566    0.1100
     42 H42         2.1471    5.1664   51.3325 H       1  ZINC000263872566    0.0600
     43 H43         1.4522    6.2987   52.5173 H       1  ZINC000263872566    0.0700
     44 H44         2.1832    4.7720   53.0679 H       1  ZINC000263872566    0.0800
     45 H45        -1.5278    4.7215   50.9394 H       1  ZINC000263872566    0.0700
     46 H46        -0.7149    6.2692   51.2743 H       1  ZINC000263872566    0.0800
     47 H47        -0.0200    5.1369   50.0896 H       1  ZINC000263872566    0.0700
     48 H48         0.0668    4.1889   54.2608 H       1  ZINC000263872566    0.0800
     49 H49        -0.6643    5.7154   53.7101 H       1  ZINC000263872566    0.0700
     50 H50        -1.4771    4.1678   53.3753 H       1  ZINC000263872566    0.0600
     51 H51        -1.0601    3.6851   48.5888 H       1  ZINC000263872566    0.0900
     52 H52         0.1959    2.6676   47.8420 H       1  ZINC000263872566    0.0700
     53 H53        -1.9314    2.2427   46.7196 H       1  ZINC000263872566    0.1000
     54 H54        -2.7266    1.9182   48.2816 H       1  ZINC000263872566    0.0700
     55 H55        -0.9935   -0.8412   41.5067 H       1  ZINC000263872566    0.1300
     56 H56         1.0947   -0.2880   40.3252 H       1  ZINC000263872566    0.1300
@<TRIPOS>BOND
     1     1     2    1
     2     1    28    1
     3     1    29    1
     4     1    30    1
     5     2     3    1
     6     2     4    1
     7     2     5    1
     8     4    31    1
     9     5    27   ar
    10     5     6   ar
    11     6     7   ar
    12     6    32    1
    13     7     8   ar
    14     7    33    1
    15     8     9    1
    16     8    26   ar
    17     9    10    1
    18     9    34    1
    19     9    35    1
    20    10    11   am
    21    10    36    1
    22    11    12    2
    23    11    13   am
    24    13    25    1
    25    13    14    1
    26    14    15    1
    27    14    37    1
    28    14    38    1
    29    15    16    1
    30    15    39    1
    31    15    40    1
    32    16    17    1
    33    16    24    1
    34    16    41    1
    35    17    18    2
    36    17    19    1
    37    19    20    1
    38    20    21    1
    39    20    22    1
    40    20    23    1
    41    21    42    1
    42    21    43    1
    43    21    44    1
    44    22    45    1
    45    22    46    1
    46    22    47    1
    47    23    48    1
    48    23    49    1
    49    23    50    1
    50    24    25    1
    51    24    51    1
    52    24    52    1
    53    25    53    1
    54    25    54    1
    55    26    27   ar
    56    26    55    1
    57    27    56    1
@<TRIPOS>SUBSTRUCTURE
     1 ZINC000263872566        1 TEMP              0 ****  ****    0 ROOT


##########                                Name:    ZINC000979274057
##########                DOCK_Rotatable_Bonds:                   6
##########                         Heavy_Atoms:                  24
##########                    Molecular_Weight:              330.39
##########                DOCK_Rotatable_Bonds:                   6
##########                       Formal_Charge:          0.00999946
##########                     HBond_Acceptors:                   8
##########                        HBond_Donors:                   1
##########                         Heavy_Atoms:                  24
##########                          Grid_Score:          -34.190758
##########                     Grid_vdw_energy:          -33.132187
##########                      Grid_es_energy:           -1.058572
##########           Internal_energy_repulsive:            9.023410

@<TRIPOS>MOLECULE
ZINC000979274057
 46 48 1 0 0
SMALL
USER_CHARGES


@<TRIPOS>ATOM
      1 C1         -0.9995   -1.3362   48.3984 C.3     1  ZINC000979274057   -0.1400
      2 C2         -1.4230    0.0618   47.9435 C.3     1  ZINC000979274057    0.1000
      3 H3         -2.4787    0.0514   47.6723 H       1  ZINC000979274057    0.0600
      4 N4         -0.6221    0.4613   46.7785 N.3     1  ZINC000979274057   -0.6700
      5 C5         -1.3557    0.2223   45.5285 C.3     1  ZINC000979274057    0.1300
      6 C6         -0.4150    0.3618   44.3594 C.ar    1  ZINC000979274057    0.3200
      7 N7         -0.6765   -0.2903   43.2443 N.ar    1  ZINC000979274057   -0.5200
      8 C8          0.1266   -0.1920   42.1972 C.ar    1  ZINC000979274057    0.1500
      9 C9          1.2540    0.6095   42.2851 C.ar    1  ZINC000979274057   -0.2300
     10 C10         1.4954    1.2793   43.4741 C.ar    1  ZINC000979274057    0.1500
     11 N11         0.6444    1.1370   44.4775 N.ar    1  ZINC000979274057   -0.5000
     12 C12        -1.1989    1.0585   49.0824 C.3     1  ZINC000979274057    0.0800
     13 H13        -1.2798    0.5424   50.0391 H       1  ZINC000979274057    0.0700
     14 C14        -2.2549    2.1672   49.0079 C.3     1  ZINC000979274057    0.0800
     15 N15        -1.9075    3.2058   49.9907 N.am    1  ZINC000979274057   -0.6000
     16 C16        -2.8207    3.6610   50.8712 C.2     1  ZINC000979274057    0.6100
     17 O17        -2.5140    4.5197   51.6761 O.2     1  ZINC000979274057   -0.5400
     18 C18        -4.1903    3.1185   50.8589 C.2     1  ZINC000979274057   -0.0600
     19 C19        -4.8122    2.4750   51.8885 C.2     1  ZINC000979274057    0.0400
     20 N20        -6.0520    2.1469   51.4552 N.pl3   1  ZINC000979274057   -0.4600
     21 C21        -7.0783    1.4416   52.2269 C.3     1  ZINC000979274057    0.0700
     22 C22        -6.1741    2.5893   50.1766 C.2     1  ZINC000979274057    0.1900
     23 N23        -5.0657    3.1731   49.8226 N.2     1  ZINC000979274057   -0.4600
     24 C24        -0.5335    3.7325   49.9841 C.3     1  ZINC000979274057    0.0500
     25 C25         0.4386    2.5475   50.0111 C.3     1  ZINC000979274057    0.0500
     26 O26         0.1025    1.6377   48.9609 O.3     1  ZINC000979274057   -0.3600
     27 H27        -1.1592   -2.0463   47.5869 H       1  ZINC000979274057    0.0600
     28 H28         0.0562   -1.3258   48.6695 H       1  ZINC000979274057    0.0700
     29 H29        -1.5936   -1.6327   49.2627 H       1  ZINC000979274057    0.0600
     30 H30        -0.3352    1.4260   46.8506 H       1  ZINC000979274057    0.3500
     31 H31        -1.7745   -0.7840   45.5397 H       1  ZINC000979274057    0.1000
     32 H32        -2.1617    0.9502   45.4352 H       1  ZINC000979274057    0.0600
     33 H33        -0.0933   -0.7293   41.2865 H       1  ZINC000979274057    0.1700
     34 H34         1.9283    0.7091   41.4473 H       1  ZINC000979274057    0.1500
     35 H35         2.3642    1.9122   43.5790 H       1  ZINC000979274057    0.1700
     36 H36        -2.2649    2.5979   48.0066 H       1  ZINC000979274057    0.0700
     37 H37        -3.2368    1.7552   49.2407 H       1  ZINC000979274057    0.1000
     38 H38        -4.3951    2.2669   52.8628 H       1  ZINC000979274057    0.1900
     39 H39        -7.6914    2.1659   52.7633 H       1  ZINC000979274057    0.0800
     40 H40        -7.7076    0.8628   51.5508 H       1  ZINC000979274057    0.0900
     41 H41        -6.5997    0.7714   52.9409 H       1  ZINC000979274057    0.0900
     42 H42        -7.0505    2.4782   49.5555 H       1  ZINC000979274057    0.2100
     43 H43        -0.3701    4.3209   49.0811 H       1  ZINC000979274057    0.0700
     44 H44        -0.3755    4.3571   50.8633 H       1  ZINC000979274057    0.1500
     45 H45         1.4571    2.9087   49.8678 H       1  ZINC000979274057    0.1100
     46 H46         0.3643    2.0374   50.9715 H       1  ZINC000979274057    0.0500
@<TRIPOS>BOND
     1     1     2    1
     2     1    27    1
     3     1    28    1
     4     1    29    1
     5     2     3    1
     6     2     4    1
     7     2    12    1
     8     4     5    1
     9     4    30    1
    10     5     6    1
    11     5    31    1
    12     5    32    1
    13     6    11   ar
    14     6     7   ar
    15     7     8   ar
    16     8     9   ar
    17     8    33    1
    18     9    10   ar
    19     9    34    1
    20    10    11   ar
    21    10    35    1
    22    12    13    1
    23    12    26    1
    24    12    14    1
    25    14    15    1
    26    14    36    1
    27    14    37    1
    28    15    16   am
    29    15    24    1
    30    16    17    2
    31    16    18    1
    32    18    23    1
    33    18    19    2
    34    19    20    1
    35    19    38    1
    36    20    21    1
    37    20    22    1
    38    21    39    1
    39    21    40    1
    40    21    41    1
    41    22    23    2
    42    22    42    1
    43    24    25    1
    44    24    43    1
    45    24    44    1
    46    25    26    1
    47    25    45    1
    48    25    46    1
@<TRIPOS>SUBSTRUCTURE
     1 ZINC000979274057        1 TEMP              0 ****  ****    0 ROOT


##########                                Name:    ZINC000600609084
##########                DOCK_Rotatable_Bonds:                   8
##########                         Heavy_Atoms:                  30
##########                    Molecular_Weight:             422.548
##########                DOCK_Rotatable_Bonds:                   8
##########                       Formal_Charge:           0.0100005
##########                     HBond_Acceptors:                   6
##########                        HBond_Donors:                   2
##########                         Heavy_Atoms:                  30
##########                          Grid_Score:          -34.189125
##########                     Grid_vdw_energy:          -33.920597
##########                      Grid_es_energy:           -0.268529
##########           Internal_energy_repulsive:           19.839321

@<TRIPOS>MOLECULE
ZINC000600609084
 56 59 1 0 0
SMALL
USER_CHARGES


@<TRIPOS>ATOM
      1 O1         -6.6127    1.4876   58.0484 O.2     1  ZINC000600609084   -0.5300
      2 C2         -7.8071    1.4900   57.8382 C.2     1  ZINC000600609084    0.5200
      3 C3         -8.3267    1.7485   56.4473 C.3     1  ZINC000600609084   -0.1500
      4 C4         -8.7414    0.4241   55.8034 C.3     1  ZINC000600609084    0.1300
      5 N5         -9.9109    0.6417   54.9484 N.am    1  ZINC000600609084   -1.1200
      6 S6        -10.0013   -0.0918   53.4664 S.o2    1  ZINC000600609084    2.7000
      7 O7         -9.7977   -1.4798   53.6926 O.2     1  ZINC000600609084   -0.9600
      8 O8        -11.1599    0.4303   52.8304 O.2     1  ZINC000600609084   -0.9500
      9 C9         -8.6218    0.4664   52.5231 C.ar    1  ZINC000600609084   -0.6700
     10 C10        -7.7808   -0.4661   51.9193 C.ar    1  ZINC000600609084   -0.0400
     11 C11        -6.7066   -0.0684   51.1839 C.ar    1  ZINC000600609084   -0.1200
     12 C12        -6.4390    1.3022   51.0292 C.ar    1  ZINC000600609084   -0.0100
     13 C13        -5.3399    1.7512   50.2771 C.ar    1  ZINC000600609084   -0.1200
     14 C14        -5.1121    3.0867   50.1488 C.ar    1  ZINC000600609084   -0.0900
     15 C15        -5.9533    4.0195   50.7529 C.ar    1  ZINC000600609084   -0.1200
     16 C16        -7.0270    3.6219   51.4886 C.ar    1  ZINC000600609084   -0.0900
     17 C17        -7.2946    2.2509   51.6436 C.ar    1  ZINC000600609084   -0.0800
     18 C18        -8.3968    1.8024   52.3905 C.ar    1  ZINC000600609084    0.0200
     19 N19        -8.6696    1.2559   58.8471 N.am    1  ZINC000600609084   -0.7200
     20 C20        -8.1644    1.0047   60.1990 C.3     1  ZINC000600609084    0.1400
     21 H21        -7.0978    0.7829   60.1636 H       1  ZINC000600609084    0.1000
     22 C22        -8.4183    2.2312   61.0930 C.3     1  ZINC000600609084   -0.1300
     23 C23        -9.3283    1.7563   62.2445 C.3     1  ZINC000600609084   -0.1300
     24 C24       -10.0431    0.5066   61.6732 C.3     1  ZINC000600609084   -0.1200
     25 C25        -8.9282   -0.1734   60.8381 C.3     1  ZINC000600609084   -0.0700
     26 H26        -8.2673   -0.7521   61.4835 H       1  ZINC000600609084    0.0900
     27 C27        -9.5296   -1.0555   59.7745 C.ar    1  ZINC000600609084   -0.0600
     28 C28        -9.0108   -2.3166   59.5476 C.ar    1  ZINC000600609084   -0.1100
     29 C29        -9.5624   -3.1257   58.5720 C.ar    1  ZINC000600609084   -0.1200
     30 C30       -10.6332   -2.6738   57.8234 C.ar    1  ZINC000600609084   -0.1200
     31 C31       -11.1525   -1.4130   58.0508 C.ar    1  ZINC000600609084   -0.1200
     32 C32       -10.6036   -0.6057   59.0294 C.ar    1  ZINC000600609084   -0.1100
     33 H33        -9.1892    2.4130   56.4993 H       1  ZINC000600609084    0.1000
     34 H34        -7.5446    2.2147   55.8481 H       1  ZINC000600609084    0.1000
     35 H35        -7.9180    0.0391   55.2016 H       1  ZINC000600609084    0.0900
     36 H36        -8.9898   -0.2967   56.5824 H       1  ZINC000600609084    0.0800
     37 H37       -10.6324    1.2155   55.2504 H       1  ZINC000600609084    0.4200
     38 H38        -7.9840   -1.5203   52.0369 H       1  ZINC000600609084    0.1400
     39 H39        -6.0631   -0.8026   50.7219 H       1  ZINC000600609084    0.1400
     40 H40        -4.6792    1.0399   49.8036 H       1  ZINC000600609084    0.1300
     41 H41        -4.2666    3.4289   49.5706 H       1  ZINC000600609084    0.1300
     42 H42        -5.7498    5.0737   50.6357 H       1  ZINC000600609084    0.1300
     43 H43        -7.6699    4.3561   51.9513 H       1  ZINC000600609084    0.1300
     44 H44        -9.0599    2.5138   52.8601 H       1  ZINC000600609084    0.1500
     45 H45        -9.6247    1.2538   58.6779 H       1  ZINC000600609084    0.4000
     46 H46        -7.4750    2.6040   61.4920 H       1  ZINC000600609084    0.0800
     47 H47        -8.9173    3.0133   60.5208 H       1  ZINC000600609084    0.0700
     48 H48        -8.7319    1.4892   63.1169 H       1  ZINC000600609084    0.0700
     49 H49       -10.0547    2.5280   62.4997 H       1  ZINC000600609084    0.0700
     50 H50       -10.3772   -0.1488   62.4776 H       1  ZINC000600609084    0.0700
     51 H51       -10.8795    0.7969   61.0374 H       1  ZINC000600609084    0.0700
     52 H52        -8.1744   -2.6696   60.1325 H       1  ZINC000600609084    0.1200
     53 H53        -9.1567   -4.1106   58.3943 H       1  ZINC000600609084    0.1200
     54 H54       -11.0637   -3.3056   57.0606 H       1  ZINC000600609084    0.1200
     55 H55       -11.9887   -1.0599   57.4657 H       1  ZINC000600609084    0.1200
     56 H56       -11.0093    0.3794   59.2070 H       1  ZINC000600609084    0.1200
@<TRIPOS>BOND
     1     1     2    2
     2     2     3    1
     3     2    19   am
     4     3     4    1
     5     3    33    1
     6     3    34    1
     7     4     5    1
     8     4    35    1
     9     4    36    1
    10     5     6   am
    11     5    37    1
    12     6     7    2
    13     6     8    2
    14     6     9    1
    15     9    18   ar
    16     9    10   ar
    17    10    11   ar
    18    10    38    1
    19    11    12   ar
    20    11    39    1
    21    12    17   ar
    22    12    13   ar
    23    13    14   ar
    24    13    40    1
    25    14    15   ar
    26    14    41    1
    27    15    16   ar
    28    15    42    1
    29    16    17   ar
    30    16    43    1
    31    17    18   ar
    32    18    44    1
    33    19    20    1
    34    19    45    1
    35    20    21    1
    36    20    25    1
    37    20    22    1
    38    22    23    1
    39    22    46    1
    40    22    47    1
    41    23    24    1
    42    23    48    1
    43    23    49    1
    44    24    25    1
    45    24    50    1
    46    24    51    1
    47    25    26    1
    48    25    27    1
    49    27    32   ar
    50    27    28   ar
    51    28    29   ar
    52    28    52    1
    53    29    30   ar
    54    29    53    1
    55    30    31   ar
    56    30    54    1
    57    31    32   ar
    58    31    55    1
    59    32    56    1
@<TRIPOS>SUBSTRUCTURE
     1 ZINC000600609084        1 TEMP              0 ****  ****    0 ROOT


##########                                Name:    ZINC000195331548
##########                DOCK_Rotatable_Bonds:                   7
##########                         Heavy_Atoms:                  26
##########                    Molecular_Weight:             378.539
##########                DOCK_Rotatable_Bonds:                   7
##########                       Formal_Charge:          -0.0100004
##########                     HBond_Acceptors:                   7
##########                        HBond_Donors:                   2
##########                         Heavy_Atoms:                  26
##########                          Grid_Score:          -34.183537
##########                     Grid_vdw_energy:          -33.245659
##########                      Grid_es_energy:           -0.937879
##########           Internal_energy_repulsive:           23.852991

@<TRIPOS>MOLECULE
ZINC000195331548
 56 58 1 0 0
SMALL
USER_CHARGES


@<TRIPOS>ATOM
      1 C1        -12.0760    3.5848   49.9942 C.3     1  ZINC000195331548   -0.0800
      2 C2        -10.6681    4.1184   49.9310 C.2     1  ZINC000195331548    0.0700
      3 C3        -10.3740    5.3261   49.4401 C.2     1  ZINC000195331548   -0.2600
      4 S4         -8.6304    5.5503   49.5599 S.3     1  ZINC000195331548    0.1100
      5 C5         -8.4693    3.9945   50.2504 C.2     1  ZINC000195331548    0.0600
      6 C6         -7.1657    3.3722   50.6799 C.3     1  ZINC000195331548   -0.0100
      7 H7         -6.7599    2.7757   49.8627 H       1  ZINC000195331548    0.1100
      8 C8         -7.4040    2.4757   51.8981 C.3     1  ZINC000195331548   -0.1200
      9 C9         -6.0660    1.8952   52.3643 C.3     1  ZINC000195331548   -0.1100
     10 C10        -5.1032    3.0404   52.6862 C.3     1  ZINC000195331548    0.0500
     11 N11        -4.9075    3.8682   51.4891 N.3     1  ZINC000195331548   -0.5200
     12 C12        -3.8832    4.8954   51.7211 C.3     1  ZINC000195331548    0.0400
     13 C13        -2.5905    4.4710   51.0733 C.2     1  ZINC000195331548    0.5100
     14 O14        -1.5631    5.0631   51.3253 O.2     1  ZINC000195331548   -0.4400
     15 N15        -2.5766    3.4330   50.2136 N.am    1  ZINC000195331548   -0.7000
     16 C16        -1.4208    3.0544   49.6329 C.2     1  ZINC000195331548    0.6900
     17 O17        -0.3913    3.6498   49.8833 O.2     1  ZINC000195331548   -0.5300
     18 N18        -1.4066    2.0154   48.7745 N.am    1  ZINC000195331548   -0.7300
     19 C19        -0.1499    1.6028   48.1447 C.3     1  ZINC000195331548    0.1700
     20 H20         0.6812    1.8198   48.8157 H       1  ZINC000195331548    0.0900
     21 C21         0.0393    2.3690   46.8340 C.3     1  ZINC000195331548   -0.1300
     22 C22        -1.1273    2.0644   45.8921 C.3     1  ZINC000195331548   -0.1200
     23 C23        -1.1707    0.5626   45.6032 C.3     1  ZINC000195331548   -0.1200
     24 C24        -1.3599   -0.2037   46.9139 C.3     1  ZINC000195331548   -0.1100
     25 C25        -0.1933    0.1009   47.8557 C.3     1  ZINC000195331548   -0.1000
     26 H26         0.7417   -0.2061   47.3871 H       1  ZINC000195331548    0.0900
     27 C27        -0.3826   -0.6653   49.1665 C.3     1  ZINC000195331548   -0.1500
     28 C28        -6.1709    4.4745   51.0506 C.3     1  ZINC000195331548    0.0600
     29 N29        -9.6260    3.4326   50.3557 N.2     1  ZINC000195331548   -0.4700
     30 H30       -12.5283    3.8645   50.9456 H       1  ZINC000195331548    0.0800
     31 H31       -12.6610    4.0054   49.1762 H       1  ZINC000195331548    0.0800
     32 H32       -12.0571    2.4985   49.9063 H       1  ZINC000195331548    0.0800
     33 H33       -11.0807    6.0401   49.0435 H       1  ZINC000195331548    0.1800
     34 H34        -7.8459    3.0639   52.7023 H       1  ZINC000195331548    0.0600
     35 H35        -8.0793    1.6643   51.6266 H       1  ZINC000195331548    0.0700
     36 H36        -6.2231    1.2901   53.2570 H       1  ZINC000195331548    0.0800
     37 H37        -5.6429    1.2754   51.5737 H       1  ZINC000195331548    0.0800
     38 H38        -4.1447    2.6304   53.0047 H       1  ZINC000195331548    0.0800
     39 H39        -5.5205    3.6517   53.4862 H       1  ZINC000195331548    0.0400
     40 H40        -3.7290    5.0190   52.7931 H       1  ZINC000195331548    0.1200
     41 H41        -4.2125    5.8408   51.2899 H       1  ZINC000195331548    0.0700
     42 H42        -3.3984    2.9586   50.0128 H       1  ZINC000195331548    0.4100
     43 H43        -2.2284    1.5409   48.5737 H       1  ZINC000195331548    0.4000
     44 H44         0.9744    2.0620   46.3654 H       1  ZINC000195331548    0.0700
     45 H45         0.0704    3.4390   47.0398 H       1  ZINC000195331548    0.0700
     46 H46        -0.9924    2.6103   44.9583 H       1  ZINC000195331548    0.0600
     47 H47        -2.0622    2.3714   46.3607 H       1  ZINC000195331548    0.0600
     48 H48        -2.0018    0.3456   44.9322 H       1  ZINC000195331548    0.0600
     49 H49        -0.2357    0.2555   45.1346 H       1  ZINC000195331548    0.0600
     50 H50        -2.2950    0.1034   47.3825 H       1  ZINC000195331548    0.0600
     51 H51        -1.3909   -1.2737   46.7081 H       1  ZINC000195331548    0.0700
     52 H52        -1.3176   -0.3582   49.6351 H       1  ZINC000195331548    0.0500
     53 H53        -0.4135   -1.7353   48.9606 H       1  ZINC000195331548    0.0600
     54 H54         0.4485   -0.4483   49.8375 H       1  ZINC000195331548    0.0600
     55 H55        -6.5833    5.0792   51.8584 H       1  ZINC000195331548    0.0400
     56 H56        -5.9881    5.1062   50.1812 H       1  ZINC000195331548    0.0900
@<TRIPOS>BOND
     1     1     2    1
     2     1    30    1
     3     1    31    1
     4     1    32    1
     5     2    29    1
     6     2     3    2
     7     3     4    1
     8     3    33    1
     9     4     5    1
    10     5     6    1
    11     5    29    2
    12     6     7    1
    13     6    28    1
    14     6     8    1
    15     8     9    1
    16     8    34    1
    17     8    35    1
    18     9    10    1
    19     9    36    1
    20     9    37    1
    21    10    11    1
    22    10    38    1
    23    10    39    1
    24    11    12    1
    25    11    28    1
    26    12    13    1
    27    12    40    1
    28    12    41    1
    29    13    14    2
    30    13    15   am
    31    15    16   am
    32    15    42    1
    33    16    17    2
    34    16    18   am
    35    18    19    1
    36    18    43    1
    37    19    20    1
    38    19    25    1
    39    19    21    1
    40    21    22    1
    41    21    44    1
    42    21    45    1
    43    22    23    1
    44    22    46    1
    45    22    47    1
    46    23    24    1
    47    23    48    1
    48    23    49    1
    49    24    25    1
    50    24    50    1
    51    24    51    1
    52    25    26    1
    53    25    27    1
    54    27    52    1
    55    27    53    1
    56    27    54    1
    57    28    55    1
    58    28    56    1
@<TRIPOS>SUBSTRUCTURE
     1 ZINC000195331548        1 TEMP              0 ****  ****    0 ROOT


##########                                Name:    ZINC001707804910
##########                DOCK_Rotatable_Bonds:                   4
##########                         Heavy_Atoms:                  26
##########                    Molecular_Weight:             358.403
##########                DOCK_Rotatable_Bonds:                   4
##########                       Formal_Charge:          -0.0399996
##########                     HBond_Acceptors:                  10
##########                        HBond_Donors:                   0
##########                         Heavy_Atoms:                  26
##########                          Grid_Score:          -34.158268
##########                     Grid_vdw_energy:          -33.613358
##########                      Grid_es_energy:           -0.544912
##########           Internal_energy_repulsive:            9.522723

@<TRIPOS>MOLECULE
ZINC001707804910
 48 51 1 0 0
SMALL
USER_CHARGES


@<TRIPOS>ATOM
      1 C1          1.9318    4.8114   47.8893 C.3     1  ZINC001707804910   -0.0700
      2 C2          1.5704    3.7202   46.9147 C.2     1  ZINC001707804910    0.0700
      3 N3          2.3735    2.7836   46.4793 N.2     1  ZINC001707804910   -0.2800
      4 N4          1.6567    1.9701   45.5922 N.pl3   1  ZINC001707804910   -0.3700
      5 C5          2.1806    0.8031   44.8781 C.3     1  ZINC001707804910    0.0900
      6 C6          0.3985    2.4512   45.5116 C.2     1  ZINC001707804910    0.0500
      7 C7         -0.7173    1.8847   44.6720 C.3     1  ZINC001707804910    0.1800
      8 N8         -1.1132    0.5781   45.2030 N.pl3   1  ZINC001707804910   -0.4600
      9 C9         -1.3570   -0.5632   44.4905 C.2     1  ZINC001707804910    0.1900
     10 C10        -1.2688   -0.7179   42.9940 C.3     1  ZINC001707804910   -0.0700
     11 N11        -1.6790   -1.4924   45.3452 N.2     1  ZINC001707804910   -0.2800
     12 N12        -1.6554   -1.0195   46.5401 N.2     1  ZINC001707804910   -0.3000
     13 C13        -1.3093    0.2459   46.5119 C.2     1  ZINC001707804910    0.3500
     14 N14        -1.1764    1.0881   47.6044 N.3     1  ZINC001707804910   -0.4600
     15 C15        -0.3867    0.4508   48.6680 C.3     1  ZINC001707804910    0.0200
     16 C16        -0.2143    1.4352   49.8278 C.3     1  ZINC001707804910    0.0700
     17 O17        -1.5026    1.8535   50.2868 O.3     1  ZINC001707804910   -0.3600
     18 C18        -2.2985    2.4790   49.2766 C.3     1  ZINC001707804910    0.2000
     19 H19        -1.7944    3.3774   48.9204 H       1  ZINC001707804910    0.1000
     20 C20        -3.6412    2.8499   49.8517 C.2     1  ZINC001707804910    0.1600
     21 N21        -3.9422    3.9685   50.4476 N.2     1  ZINC001707804910   -0.2500
     22 N22        -5.1767    3.9410   50.8093 N.2     1  ZINC001707804910   -0.2900
     23 C23        -5.7052    2.8038   50.4564 C.2     1  ZINC001707804910    0.1700
     24 C24        -7.1292    2.3707   50.6926 C.3     1  ZINC001707804910   -0.0600
     25 O25        -4.7491    2.0898   49.8388 O.3     1  ZINC001707804910   -0.2200
     26 C26        -2.4919    1.5052   48.1111 C.3     1  ZINC001707804910    0.0400
     27 C27         0.3168    3.5302   46.3242 C.2     1  ZINC001707804910   -0.2300
     28 H28         1.7425    4.4677   48.9061 H       1  ZINC001707804910    0.0800
     29 H29         2.9874    5.0607   47.7805 H       1  ZINC001707804910    0.0700
     30 H30         1.3270    5.6951   47.6859 H       1  ZINC001707804910    0.0800
     31 H31         2.1269   -0.0729   45.5247 H       1  ZINC001707804910    0.0800
     32 H32         1.5865    0.6292   43.9809 H       1  ZINC001707804910    0.0900
     33 H33         3.2181    0.9844   44.5975 H       1  ZINC001707804910    0.0900
     34 H34        -1.5713    2.5616   44.6982 H       1  ZINC001707804910    0.1100
     35 H35        -0.3758    1.7705   43.6432 H       1  ZINC001707804910    0.1200
     36 H36        -0.2353   -0.9162   42.7096 H       1  ZINC001707804910    0.0900
     37 H37        -1.8987   -1.5488   42.6769 H       1  ZINC001707804910    0.1000
     38 H38        -1.6083    0.1996   42.5133 H       1  ZINC001707804910    0.0700
     39 H39        -0.9044   -0.4410   49.0213 H       1  ZINC001707804910    0.0700
     40 H40         0.5925    0.1732   48.2776 H       1  ZINC001707804910    0.0900
     41 H41         0.3216    0.9477   50.6423 H       1  ZINC001707804910    0.1200
     42 H42         0.3504    2.3031   49.4877 H       1  ZINC001707804910    0.0700
     43 H43        -7.7463    2.6741   49.8469 H       1  ZINC001707804910    0.1000
     44 H44        -7.1664    1.2866   50.7992 H       1  ZINC001707804910    0.1000
     45 H45        -7.5050    2.8383   51.6027 H       1  ZINC001707804910    0.1100
     46 H46        -3.0496    1.9974   47.3143 H       1  ZINC001707804910    0.1000
     47 H47        -3.0435    0.6304   48.4555 H       1  ZINC001707804910    0.0800
     48 H48        -0.5598    4.1407   46.4835 H       1  ZINC001707804910    0.1500
@<TRIPOS>BOND
     1     1     2    1
     2     1    28    1
     3     1    29    1
     4     1    30    1
     5     2    27    1
     6     2     3    2
     7     3     4    1
     8     4     5    1
     9     4     6    1
    10     5    31    1
    11     5    32    1
    12     5    33    1
    13     6     7    1
    14     6    27    2
    15     7     8    1
    16     7    34    1
    17     7    35    1
    18     8    13    1
    19     8     9    1
    20     9    10    1
    21     9    11    2
    22    10    36    1
    23    10    37    1
    24    10    38    1
    25    11    12    1
    26    12    13    2
    27    13    14    1
    28    14    26    1
    29    14    15    1
    30    15    16    1
    31    15    39    1
    32    15    40    1
    33    16    17    1
    34    16    41    1
    35    16    42    1
    36    17    18    1
    37    18    19    1
    38    18    20    1
    39    18    26    1
    40    20    25    1
    41    20    21    2
    42    21    22    1
    43    22    23    2
    44    23    24    1
    45    23    25    1
    46    24    43    1
    47    24    44    1
    48    24    45    1
    49    26    46    1
    50    26    47    1
    51    27    48    1
@<TRIPOS>SUBSTRUCTURE
     1 ZINC001707804910        1 TEMP              0 ****  ****    0 ROOT


##########                                Name:    ZINC000269356812
##########                DOCK_Rotatable_Bonds:                  10
##########                         Heavy_Atoms:                  25
##########                    Molecular_Weight:             387.431
##########                DOCK_Rotatable_Bonds:                  10
##########                       Formal_Charge:          0.00999978
##########                     HBond_Acceptors:                  10
##########                        HBond_Donors:                   3
##########                         Heavy_Atoms:                  25
##########                          Grid_Score:          -34.122467
##########                     Grid_vdw_energy:          -33.841751
##########                      Grid_es_energy:           -0.280716
##########           Internal_energy_repulsive:            7.889666

@<TRIPOS>MOLECULE
ZINC000269356812
 40 41 1 0 0
SMALL
USER_CHARGES


@<TRIPOS>ATOM
      1 C1          1.3785    2.2845   48.4397 C.3     1  ZINC000269356812   -0.1400
      2 C2          0.0051    1.7940   48.9024 C.3     1  ZINC000269356812    0.2000
      3 O3          0.0658    1.4439   50.2865 O.3     1  ZINC000269356812   -0.5400
      4 C4         -1.0273    2.9053   48.7024 C.3     1  ZINC000269356812    0.0900
      5 N5         -2.0992    2.7598   49.6904 N.am    1  ZINC000269356812   -0.6900
      6 C6         -3.3111    2.3104   49.3087 C.2     1  ZINC000269356812    0.5100
      7 O7         -3.5149    2.0276   48.1462 O.2     1  ZINC000269356812   -0.5100
      8 C8         -4.4031    2.1604   50.3161 C.2     1  ZINC000269356812    0.5100
      9 O9         -4.2114    2.4808   51.4712 O.2     1  ZINC000269356812   -0.4900
     10 N10        -5.6013    1.6690   49.9430 N.am    1  ZINC000269356812   -0.6400
     11 C11        -6.6245    1.5284   50.8869 C.ar    1  ZINC000269356812    0.0900
     12 C12        -7.5362    2.5624   51.0990 C.ar    1  ZINC000269356812   -0.0600
     13 C13        -8.5312    2.3801   52.0409 C.ar    1  ZINC000269356812   -0.1200
     14 C14        -8.5901    1.1793   52.7418 C.ar    1  ZINC000269356812    0.1000
     15 S15        -9.8539    0.9339   53.9448 S.3     1  ZINC000269356812   -0.0600
     16 C16       -10.3612   -0.7841   53.6591 C.3     1  ZINC000269356812    0.2900
     17 F17       -11.1340   -1.2276   54.7377 F       1  ZINC000269356812   -0.1700
     18 F18       -11.1157   -0.8582   52.4833 F       1  ZINC000269356812   -0.1700
     19 N19        -7.7072    0.2186   52.5143 N.ar    1  ZINC000269356812   -0.4600
     20 C20        -6.7482    0.3565   51.6193 C.ar    1  ZINC000269356812    0.1100
     21 C21        -0.3948    0.5857   48.0956 C.2     1  ZINC000269356812   -0.2300
     22 C22        -0.3612   -0.6749   48.5306 C.2     1  ZINC000269356812   -0.1100
     23 C23        -0.7769   -1.6210   47.6096 C.2     1  ZINC000269356812   -0.1400
     24 C24        -1.1482   -1.1288   46.4268 C.2     1  ZINC000269356812   -0.2000
     25 S25        -0.9844    0.6224   46.4390 S.3     1  ZINC000269356812    0.1100
     26 H26         2.1140    1.4928   48.5823 H       1  ZINC000269356812    0.0800
     27 H27         1.3322    2.5516   47.3840 H       1  ZINC000269356812    0.0800
     28 H28         1.6678    3.1585   49.0233 H       1  ZINC000269356812    0.0700
     29 H29         0.6587    0.7048   50.4796 H       1  ZINC000269356812    0.3800
     30 H30        -0.5462    3.8752   48.8284 H       1  ZINC000269356812    0.0900
     31 H31        -1.4465    2.8354   47.6986 H       1  ZINC000269356812    0.0900
     32 H32        -1.9366    2.9869   50.6194 H       1  ZINC000269356812    0.4200
     33 H33        -5.7544    1.4128   49.0199 H       1  ZINC000269356812    0.4300
     34 H34        -7.4661    3.4841   50.5404 H       1  ZINC000269356812    0.1600
     35 H35        -9.2538    3.1601   52.2310 H       1  ZINC000269356812    0.1500
     36 H36        -9.4762   -1.4131   53.5632 H       1  ZINC000269356812    0.1500
     37 H37        -6.0459   -0.4486   51.4609 H       1  ZINC000269356812    0.1700
     38 H38        -0.0340   -0.9375   49.5258 H       1  ZINC000269356812    0.1500
     39 H39        -0.7987   -2.6777   47.8319 H       1  ZINC000269356812    0.1400
     40 H40        -1.4991   -1.7155   45.5907 H       1  ZINC000269356812    0.1700
@<TRIPOS>BOND
     1     1     2    1
     2     1    26    1
     3     1    27    1
     4     1    28    1
     5     2     3    1
     6     2     4    1
     7     2    21    1
     8     3    29    1
     9     4     5    1
    10     4    30    1
    11     4    31    1
    12     5     6   am
    13     5    32    1
    14     6     7    2
    15     6     8    1
    16     8     9    2
    17     8    10   am
    18    10    11    1
    19    10    33    1
    20    11    20   ar
    21    11    12   ar
    22    12    13   ar
    23    12    34    1
    24    13    14   ar
    25    13    35    1
    26    14    15    1
    27    14    19   ar
    28    15    16    1
    29    16    17    1
    30    16    18    1
    31    16    36    1
    32    19    20   ar
    33    20    37    1
    34    21    25    1
    35    21    22    2
    36    22    23    1
    37    22    38    1
    38    23    24    2
    39    23    39    1
    40    24    25    1
    41    24    40    1
@<TRIPOS>SUBSTRUCTURE
     1 ZINC000269356812        1 TEMP              0 ****  ****    0 ROOT


##########                                Name:    ZINC000461678839
##########                DOCK_Rotatable_Bonds:                   6
##########                         Heavy_Atoms:                  28
##########                    Molecular_Weight:             404.939
##########                DOCK_Rotatable_Bonds:                   6
##########                       Formal_Charge:          -0.0200003
##########                     HBond_Acceptors:                   7
##########                        HBond_Donors:                   0
##########                         Heavy_Atoms:                  28
##########                          Grid_Score:          -34.119942
##########                     Grid_vdw_energy:          -33.657562
##########                      Grid_es_energy:           -0.462381
##########           Internal_energy_repulsive:           17.284941

@<TRIPOS>MOLECULE
ZINC000461678839
 57 60 1 0 0
SMALL
USER_CHARGES


@<TRIPOS>ATOM
      1 C1         -4.1005    5.2991   51.9963 C.3     1  ZINC000461678839   -0.1500
      2 C2         -4.4230    3.8081   51.8785 C.3     1  ZINC000461678839   -0.0900
      3 H3         -3.5150    3.2328   52.0593 H       1  ZINC000461678839    0.0700
      4 C4         -4.9299    3.5136   50.4488 C.3     1  ZINC000461678839   -0.1100
      5 C5         -4.8297    2.0336   50.1921 C.3     1  ZINC000461678839   -0.1200
      6 C6         -6.1189    1.2737   50.5520 C.3     1  ZINC000461678839    0.0600
      7 N7         -6.7275    1.7217   51.8239 N.3     1  ZINC000461678839   -0.4600
      8 C8         -7.7138    0.8414   52.2397 C.2     1  ZINC000461678839    0.3700
      9 N9         -7.6632   -0.4687   52.1857 N.2     1  ZINC000461678839   -0.3100
     10 N10        -8.7503   -0.9674   52.6563 N.2     1  ZINC000461678839   -0.2500
     11 C11        -9.5523   -0.0130   53.0351 C.2     1  ZINC000461678839    0.1700
     12 C12       -10.9221   -0.1846   53.6398 C.3     1  ZINC000461678839    0.1500
     13 O13       -10.9548   -1.3868   54.4115 O.3     1  ZINC000461678839   -0.3100
     14 C14       -10.3794   -1.3459   55.6422 C.ar    1  ZINC000461678839    0.1400
     15 C15        -9.6812   -0.2170   56.0452 C.ar    1  ZINC000461678839   -0.2000
     16 C16        -9.0970   -0.1772   57.2964 C.ar    1  ZINC000461678839   -0.0700
     17 C17        -9.2076   -1.2626   58.1474 C.ar    1  ZINC000461678839   -0.0700
     18 Cl18       -8.4721   -1.2106   59.7190 Cl      1  ZINC000461678839   -0.0700
     19 C19        -9.9040   -2.3894   57.7474 C.ar    1  ZINC000461678839   -0.0700
     20 C20       -10.4944   -2.4307   56.4992 C.ar    1  ZINC000461678839   -0.1400
     21 N21        -8.9185    1.1731   52.7880 N.pl3   1  ZINC000461678839   -0.4600
     22 C22        -9.4301    2.5207   53.0496 C.3     1  ZINC000461678839    0.1200
     23 C23       -10.3036    2.9712   51.8770 C.3     1  ZINC000461678839   -0.1400
     24 H24       -10.6809    2.1073   51.3297 H       1  ZINC000461678839    0.0900
     25 C25        -9.5054    3.9036   50.9337 C.3     1  ZINC000461678839   -0.1500
     26 C26       -10.5595    4.9819   50.5749 C.3     1  ZINC000461678839    0.0500
     27 O27       -11.2969    5.1542   51.8042 O.3     1  ZINC000461678839   -0.3700
     28 C28       -11.4704    3.8443   52.3778 C.3     1  ZINC000461678839    0.0400
     29 C29        -5.7665    1.9555   52.8747 C.3     1  ZINC000461678839    0.0700
     30 C30        -5.4183    3.4554   52.8848 C.3     1  ZINC000461678839   -0.1100
     31 H31        -3.7244    5.5115   52.9971 H       1  ZINC000461678839    0.0500
     32 H32        -3.3432    5.5665   51.2593 H       1  ZINC000461678839    0.0500
     33 H33        -5.0042    5.8816   51.8166 H       1  ZINC000461678839    0.0600
     34 H34        -5.9688    3.8305   50.3572 H       1  ZINC000461678839    0.0700
     35 H35        -4.3170    4.0518   49.7258 H       1  ZINC000461678839    0.0700
     36 H36        -4.6115    1.8744   49.1361 H       1  ZINC000461678839    0.0800
     37 H37        -4.0076    1.6297   50.7829 H       1  ZINC000461678839    0.0700
     38 H38        -6.8431    1.4139   49.7494 H       1  ZINC000461678839    0.0700
     39 H39        -5.8884    0.2112   50.6298 H       1  ZINC000461678839    0.0500
     40 H40       -11.1444    0.6664   54.2834 H       1  ZINC000461678839    0.0800
     41 H41       -11.6654   -0.2429   52.8446 H       1  ZINC000461678839    0.1000
     42 H42        -9.5940    0.6302   55.3810 H       1  ZINC000461678839    0.1400
     43 H43        -8.5532    0.7015   57.6105 H       1  ZINC000461678839    0.1400
     44 H44        -9.9896   -3.2355   58.4131 H       1  ZINC000461678839    0.1400
     45 H45       -11.0380   -3.3103   56.1873 H       1  ZINC000461678839    0.1400
     46 H46       -10.0244    2.5127   53.9633 H       1  ZINC000461678839    0.1100
     47 H47        -8.5942    3.2104   53.1660 H       1  ZINC000461678839    0.1000
     48 H48        -8.6560    4.3476   51.4529 H       1  ZINC000461678839    0.0800
     49 H49        -9.1782    3.3680   50.0426 H       1  ZINC000461678839    0.0900
     50 H50       -10.0726    5.9133   50.2856 H       1  ZINC000461678839    0.1000
     51 H51       -11.2158    4.6276   49.7801 H       1  ZINC000461678839    0.0600
     52 H52       -12.4205    3.4202   52.0528 H       1  ZINC000461678839    0.0500
     53 H53       -11.4440    3.9094   53.4655 H       1  ZINC000461678839    0.1100
     54 H54        -6.1961    1.6712   53.8353 H       1  ZINC000461678839    0.0900
     55 H55        -4.8666    1.3700   52.6864 H       1  ZINC000461678839    0.0600
     56 H56        -5.0312    3.7203   53.8687 H       1  ZINC000461678839    0.0700
     57 H57        -6.3266    4.0290   52.7000 H       1  ZINC000461678839    0.0700
@<TRIPOS>BOND
     1     1     2    1
     2     1    31    1
     3     1    32    1
     4     1    33    1
     5     2     3    1
     6     2    30    1
     7     2     4    1
     8     4     5    1
     9     4    34    1
    10     4    35    1
    11     5     6    1
    12     5    36    1
    13     5    37    1
    14     6     7    1
    15     6    38    1
    16     6    39    1
    17     7     8    1
    18     7    29    1
    19     8    21    1
    20     8     9    2
    21     9    10    1
    22    10    11    2
    23    11    12    1
    24    11    21    1
    25    12    13    1
    26    12    40    1
    27    12    41    1
    28    13    14    1
    29    14    20   ar
    30    14    15   ar
    31    15    16   ar
    32    15    42    1
    33    16    17   ar
    34    16    43    1
    35    17    18    1
    36    17    19   ar
    37    19    20   ar
    38    19    44    1
    39    20    45    1
    40    21    22    1
    41    22    23    1
    42    22    46    1
    43    22    47    1
    44    23    24    1
    45    23    28    1
    46    23    25    1
    47    25    26    1
    48    25    48    1
    49    25    49    1
    50    26    27    1
    51    26    50    1
    52    26    51    1
    53    27    28    1
    54    28    52    1
    55    28    53    1
    56    29    30    1
    57    29    54    1
    58    29    55    1
    59    30    56    1
    60    30    57    1
@<TRIPOS>SUBSTRUCTURE
     1 ZINC000461678839        1 TEMP              0 ****  ****    0 ROOT


##########                                Name:    ZINC000573150059
##########                DOCK_Rotatable_Bonds:                   7
##########                         Heavy_Atoms:                  23
##########                    Molecular_Weight:             378.269
##########                DOCK_Rotatable_Bonds:                   7
##########                       Formal_Charge:        -2.98023e-07
##########                     HBond_Acceptors:                   5
##########                        HBond_Donors:                   2
##########                         Heavy_Atoms:                  23
##########                          Grid_Score:          -34.106533
##########                     Grid_vdw_energy:          -33.833588
##########                      Grid_es_energy:           -0.272944
##########           Internal_energy_repulsive:           13.111567

@<TRIPOS>MOLECULE
ZINC000573150059
 43 44 1 0 0
SMALL
USER_CHARGES


@<TRIPOS>ATOM
      1 C1         -9.1584   -0.4793   53.1267 C.3     1  ZINC000573150059    0.0300
      2 O2         -8.0897    0.1654   52.4308 O.3     1  ZINC000573150059   -0.3600
      3 C3         -7.9275    1.5453   52.7645 C.3     1  ZINC000573150059    0.0700
      4 H4         -8.8414    2.0875   52.5220 H       1  ZINC000573150059    0.0900
      5 C5         -7.6379    1.6776   54.2610 C.3     1  ZINC000573150059   -0.1700
      6 C6         -6.7783    2.1208   51.9776 C.2     1  ZINC000573150059    0.5100
      7 O7         -6.9915    2.7331   50.9526 O.2     1  ZINC000573150059   -0.4900
      8 N8         -5.5136    1.9549   52.4128 N.am    1  ZINC000573150059   -0.6700
      9 C9         -4.4466    2.4892   51.6821 C.ar    1  ZINC000573150059    0.1900
     10 C10        -3.7345    3.5719   52.1824 C.ar    1  ZINC000573150059   -0.2000
     11 C11        -2.6806    4.1004   51.4617 C.ar    1  ZINC000573150059   -0.0500
     12 C12        -2.3312    3.5540   50.2421 C.ar    1  ZINC000573150059   -0.2200
     13 C13        -3.0393    2.4704   49.7361 C.ar    1  ZINC000573150059    0.2400
     14 N14        -2.6852    1.9181   48.5031 N.pl3   1  ZINC000573150059   -0.7300
     15 C15        -1.2726    1.7343   48.1612 C.3     1  ZINC000573150059    0.2000
     16 H16        -0.7653    2.6988   48.1823 H       1  ZINC000573150059    0.1000
     17 C17        -0.6207    0.7928   49.1760 C.3     1  ZINC000573150059   -0.1700
     18 C18        -1.1631    1.1390   46.7811 C.ar    1  ZINC000573150059    0.1400
     19 C19        -1.6523   -0.1317   46.5450 C.ar    1  ZINC000573150059   -0.1600
     20 C20        -1.5473   -0.6706   45.2718 C.ar    1  ZINC000573150059   -0.0400
     21 C21        -0.9508    0.0929   44.2791 C.ar    1  ZINC000573150059   -0.1500
     22 Br22       -0.7784   -0.5857   42.5225 Br      1  ZINC000573150059   -0.0300
     23 C23        -0.4843    1.3573   44.5906 C.ar    1  ZINC000573150059    0.1400
     24 N24        -0.6062    1.8388   45.8119 N.ar    1  ZINC000573150059   -0.4700
     25 C25        -4.0951    1.9346   50.4597 C.ar    1  ZINC000573150059   -0.1900
     26 H26        -8.9767   -0.4271   54.2002 H       1  ZINC000573150059    0.0500
     27 H27       -10.0982    0.0208   52.8926 H       1  ZINC000573150059    0.0400
     28 H28        -9.2156   -1.5231   52.8182 H       1  ZINC000573150059    0.0900
     29 H29        -6.7239    1.1353   54.5034 H       1  ZINC000573150059    0.0700
     30 H30        -7.5142    2.7302   54.5155 H       1  ZINC000573150059    0.0700
     31 H31        -8.4690    1.2614   54.8301 H       1  ZINC000573150059    0.0700
     32 H32        -5.3430    1.4653   53.2326 H       1  ZINC000573150059    0.4100
     33 H33        -4.0051    4.0014   53.1358 H       1  ZINC000573150059    0.1200
     34 H34        -2.1290    4.9425   51.8528 H       1  ZINC000573150059    0.1300
     35 H35        -1.5072    3.9694   49.6811 H       1  ZINC000573150059    0.1200
     36 H36        -3.3748    1.6563   47.8729 H       1  ZINC000573150059    0.4100
     37 H37        -1.1280   -0.1717   49.1549 H       1  ZINC000573150059    0.0600
     38 H38         0.4303    0.6561   48.9216 H       1  ZINC000573150059    0.0700
     39 H39        -0.7000    1.2234   50.1742 H       1  ZINC000573150059    0.0700
     40 H40        -2.1105   -0.6980   47.3423 H       1  ZINC000573150059    0.1500
     41 H41        -1.9205   -1.6613   45.0582 H       1  ZINC000573150059    0.1500
     42 H42        -0.0184    1.9583   43.8238 H       1  ZINC000573150059    0.1700
     43 H43        -4.6468    1.0923   50.0690 H       1  ZINC000573150059    0.1400
@<TRIPOS>BOND
     1     1     2    1
     2     1    26    1
     3     1    27    1
     4     1    28    1
     5     2     3    1
     6     3     4    1
     7     3     5    1
     8     3     6    1
     9     5    29    1
    10     5    30    1
    11     5    31    1
    12     6     7    2
    13     6     8   am
    14     8     9    1
    15     8    32    1
    16     9    25   ar
    17     9    10   ar
    18    10    11   ar
    19    10    33    1
    20    11    12   ar
    21    11    34    1
    22    12    13   ar
    23    12    35    1
    24    13    14    1
    25    13    25   ar
    26    14    15    1
    27    14    36    1
    28    15    16    1
    29    15    17    1
    30    15    18    1
    31    17    37    1
    32    17    38    1
    33    17    39    1
    34    18    24   ar
    35    18    19   ar
    36    19    20   ar
    37    19    40    1
    38    20    21   ar
    39    20    41    1
    40    21    22    1
    41    21    23   ar
    42    23    24   ar
    43    23    42    1
    44    25    43    1
@<TRIPOS>SUBSTRUCTURE
     1 ZINC000573150059        1 TEMP              0 ****  ****    0 ROOT


##########                                Name:    ZINC000536173632
##########                DOCK_Rotatable_Bonds:                   7
##########                         Heavy_Atoms:                  29
##########                    Molecular_Weight:             407.389
##########                DOCK_Rotatable_Bonds:                   7
##########                       Formal_Charge:        -2.98023e-07
##########                     HBond_Acceptors:                   8
##########                        HBond_Donors:                   0
##########                         Heavy_Atoms:                  29
##########                          Grid_Score:          -34.076752
##########                     Grid_vdw_energy:          -33.945175
##########                      Grid_es_energy:           -0.131576
##########           Internal_energy_repulsive:           18.177771

@<TRIPOS>MOLECULE
ZINC000536173632
 49 51 1 0 0
SMALL
USER_CHARGES


@<TRIPOS>ATOM
      1 C1         -7.1850    2.7211   56.4621 C.3     1  ZINC000536173632    0.0400
      2 O2         -6.7926    2.8117   55.0670 O.3     1  ZINC000536173632   -0.3500
      3 C3         -7.0334    1.7359   54.2929 C.2     1  ZINC000536173632    0.5100
      4 O4         -7.5854    0.7611   54.7625 O.2     1  ZINC000536173632   -0.5000
      5 C5         -6.6260    1.7416   52.8729 C.ar    1  ZINC000536173632   -0.1300
      6 C6         -6.8316    0.6110   52.0800 C.ar    1  ZINC000536173632   -0.0600
      7 C7         -6.4487    0.6231   50.7546 C.ar    1  ZINC000536173632   -0.1300
      8 C8         -5.8618    1.7518   50.2112 C.ar    1  ZINC000536173632   -0.0700
      9 C9         -5.6551    2.8759   50.9914 C.ar    1  ZINC000536173632   -0.0800
     10 C10        -5.0151    4.1009   50.3906 C.3     1  ZINC000536173632   -0.1000
     11 C11        -3.8103    4.4902   51.2078 C.2     1  ZINC000536173632    0.5200
     12 O12        -3.8581    5.4601   51.9345 O.2     1  ZINC000536173632   -0.5200
     13 N13        -2.6797    3.7607   51.1312 N.am    1  ZINC000536173632   -0.6200
     14 C14        -1.4906    4.1212   51.9195 C.3     1  ZINC000536173632    0.0700
     15 C15        -0.2820    4.1682   50.9776 C.3     1  ZINC000536173632    0.0500
     16 O16        -0.2096    2.9437   50.2434 O.3     1  ZINC000536173632   -0.3700
     17 C17        -1.3355    2.7018   49.3961 C.3     1  ZINC000536173632    0.1200
     18 H18        -1.4501    3.5305   48.6974 H       1  ZINC000536173632    0.0800
     19 C19        -1.1225    1.4222   48.6290 C.ar    1  ZINC000536173632   -0.0900
     20 C20        -0.6623    0.2940   49.2811 C.ar    1  ZINC000536173632   -0.0600
     21 C21        -0.4668   -0.8799   48.5774 C.ar    1  ZINC000536173632   -0.1200
     22 C22        -0.7321   -0.9252   47.2217 C.ar    1  ZINC000536173632   -0.0700
     23 C23        -1.1934    0.2032   46.5695 C.ar    1  ZINC000536173632   -0.1800
     24 C24        -1.4823    0.1540   45.0912 C.3     1  ZINC000536173632    0.5100
     25 F25        -2.3461    1.2001   44.7498 F       1  ZINC000536173632   -0.1800
     26 F26        -0.2861    0.2852   44.3777 F       1  ZINC000536173632   -0.1800
     27 F27        -2.0827   -1.0690   44.7738 F       1  ZINC000536173632   -0.1800
     28 C28        -1.3929    1.3755   47.2739 C.ar    1  ZINC000536173632   -0.0500
     29 C29        -2.5998    2.5764   50.2614 C.3     1  ZINC000536173632    0.0900
     30 C30        -6.0388    2.8796   52.3162 C.ar    1  ZINC000536173632   -0.0400
     31 H31        -8.2592    2.5482   56.5269 H       1  ZINC000536173632    0.0600
     32 H32        -6.6547    1.8949   56.9358 H       1  ZINC000536173632    0.0600
     33 H33        -6.9355    3.6522   56.9709 H       1  ZINC000536173632    0.1000
     34 H34        -7.2890   -0.2711   52.5033 H       1  ZINC000536173632    0.1400
     35 H35        -6.6072   -0.2509   50.1401 H       1  ZINC000536173632    0.1400
     36 H36        -5.5633    1.7557   49.1732 H       1  ZINC000536173632    0.1300
     37 H37        -4.7060    3.8847   49.3679 H       1  ZINC000536173632    0.1100
     38 H38        -5.7328    4.9213   50.3876 H       1  ZINC000536173632    0.1100
     39 H39        -1.6369    5.0992   52.3781 H       1  ZINC000536173632    0.1000
     40 H40        -1.3232    3.3731   52.6944 H       1  ZINC000536173632    0.0800
     41 H41        -0.3928    5.0022   50.2846 H       1  ZINC000536173632    0.0600
     42 H42         0.6295    4.2973   51.5611 H       1  ZINC000536173632    0.1100
     43 H43        -0.4550    0.3293   50.3405 H       1  ZINC000536173632    0.1400
     44 H44        -0.1065   -1.7614   49.0868 H       1  ZINC000536173632    0.1400
     45 H45        -0.5788   -1.8420   46.6717 H       1  ZINC000536173632    0.1400
     46 H46        -1.7533    2.2570   46.7645 H       1  ZINC000536173632    0.1400
     47 H47        -2.5418    1.6723   50.8674 H       1  ZINC000536173632    0.0800
     48 H48        -3.4805    2.5334   49.6205 H       1  ZINC000536173632    0.1100
     49 H49        -5.8772    3.7576   52.9240 H       1  ZINC000536173632    0.1400
@<TRIPOS>BOND
     1     1     2    1
     2     1    31    1
     3     1    32    1
     4     1    33    1
     5     2     3    1
     6     3     4    2
     7     3     5    1
     8     5    30   ar
     9     5     6   ar
    10     6     7   ar
    11     6    34    1
    12     7     8   ar
    13     7    35    1
    14     8     9   ar
    15     8    36    1
    16     9    10    1
    17     9    30   ar
    18    10    11    1
    19    10    37    1
    20    10    38    1
    21    11    12    2
    22    11    13   am
    23    13    29    1
    24    13    14    1
    25    14    15    1
    26    14    39    1
    27    14    40    1
    28    15    16    1
    29    15    41    1
    30    15    42    1
    31    16    17    1
    32    17    18    1
    33    17    19    1
    34    17    29    1
    35    19    28   ar
    36    19    20   ar
    37    20    21   ar
    38    20    43    1
    39    21    22   ar
    40    21    44    1
    41    22    23   ar
    42    22    45    1
    43    23    24    1
    44    23    28   ar
    45    24    25    1
    46    24    26    1
    47    24    27    1
    48    28    46    1
    49    29    47    1
    50    29    48    1
    51    30    49    1
@<TRIPOS>SUBSTRUCTURE
     1 ZINC000536173632        1 TEMP              0 ****  ****    0 ROOT


##########                                Name:    ZINC000439870054
##########                DOCK_Rotatable_Bonds:                   5
##########                         Heavy_Atoms:                  27
##########                    Molecular_Weight:             421.974
##########                DOCK_Rotatable_Bonds:                   5
##########                       Formal_Charge:           0.0200003
##########                     HBond_Acceptors:                   9
##########                        HBond_Donors:                   0
##########                         Heavy_Atoms:                  27
##########                          Grid_Score:          -34.046658
##########                     Grid_vdw_energy:          -33.929363
##########                      Grid_es_energy:           -0.117294
##########           Internal_energy_repulsive:           61.628777

@<TRIPOS>MOLECULE
ZINC000439870054
 47 50 1 0 0
SMALL
USER_CHARGES


@<TRIPOS>ATOM
      1 C1          3.2125    3.2532   45.2252 C.3     1  ZINC000439870054   -0.1400
      2 C2          2.0644    2.4664   44.5899 C.3     1  ZINC000439870054    0.0000
      3 C3          2.5554    1.7953   43.3055 C.3     1  ZINC000439870054   -0.1400
      4 C4          1.5828    1.4134   45.5544 C.2     1  ZINC000439870054    0.1900
      5 N5          2.2515    0.3629   45.9555 N.2     1  ZINC000439870054   -0.2900
      6 N6          1.5333   -0.3224   46.7781 N.2     1  ZINC000439870054   -0.2700
      7 C7          0.3833    0.2573   46.9334 C.2     1  ZINC000439870054    0.1600
      8 C8         -0.7853   -0.1776   47.7845 C.3     1  ZINC000439870054    0.2400
      9 H9         -1.2583   -1.0562   47.3460 H       1  ZINC000439870054    0.1100
     10 C10        -0.3083   -0.4953   49.2032 C.3     1  ZINC000439870054   -0.1300
     11 N11        -1.7396    0.9470   47.8123 N.am    1  ZINC000439870054   -0.6300
     12 C12        -2.3441    1.3148   48.9593 C.2     1  ZINC000439870054    0.5300
     13 O13        -2.1063    0.7186   49.9883 O.2     1  ZINC000439870054   -0.4900
     14 C14        -3.3155    2.4670   48.9632 C.3     1  ZINC000439870054   -0.0700
     15 C15        -3.9461    2.5877   50.3266 C.2     1  ZINC000439870054    0.0900
     16 C16        -3.5220    3.4784   51.2279 C.2     1  ZINC000439870054   -0.2400
     17 S17        -4.5053    3.3064   52.6803 S.3     1  ZINC000439870054    0.1300
     18 C18        -5.4166    2.0132   51.9050 C.2     1  ZINC000439870054    0.1400
     19 C19        -6.5280    1.2674   52.5152 C.2     1  ZINC000439870054   -0.1300
     20 C20        -7.1865    0.2384   51.9386 C.2     1  ZINC000439870054   -0.1000
     21 C21        -8.1939   -0.3032   52.7073 C.2     1  ZINC000439870054   -0.1200
     22 C22        -8.3653    0.2714   53.9040 C.2     1  ZINC000439870054   -0.1500
     23 Cl23       -9.5542   -0.2012   55.0775 Cl      1  ZINC000439870054    0.0000
     24 S24        -7.2006    1.5724   54.1115 S.3     1  ZINC000439870054    0.2500
     25 N25        -4.9504    1.8273   50.7004 N.2     1  ZINC000439870054   -0.4400
     26 C26        -2.0123    1.6557   46.5527 C.3     1  ZINC000439870054    0.0900
     27 C27        -0.7242    2.3270   46.0615 C.3     1  ZINC000439870054    0.0900
     28 N28         0.3845    1.3799   46.1705 N.pl3   1  ZINC000439870054   -0.4700
     29 H29         3.5609    4.0148   44.5276 H       1  ZINC000439870054    0.0700
     30 H30         2.8627    3.7313   46.1403 H       1  ZINC000439870054    0.0500
     31 H31         4.0319    2.5740   45.4605 H       1  ZINC000439870054    0.0700
     32 H32         1.2450    3.1455   44.3546 H       1  ZINC000439870054    0.0800
     33 H33         1.7375    1.2348   42.8528 H       1  ZINC000439870054    0.0500
     34 H34         2.9037    2.5570   42.6079 H       1  ZINC000439870054    0.0700
     35 H35         3.3748    1.1162   43.5408 H       1  ZINC000439870054    0.0700
     36 H36         0.0104    0.4244   49.6938 H       1  ZINC000439870054    0.0600
     37 H37        -1.1246   -0.9448   49.7688 H       1  ZINC000439870054    0.0900
     38 H38         0.5289   -1.1918   49.1576 H       1  ZINC000439870054    0.0700
     39 H39        -2.7860    3.3895   48.7249 H       1  ZINC000439870054    0.1100
     40 H40        -4.0915    2.2905   48.2184 H       1  ZINC000439870054    0.1200
     41 H41        -2.7147    4.1825   51.0900 H       1  ZINC000439870054    0.1800
     42 H42        -6.9430   -0.1303   50.9531 H       1  ZINC000439870054    0.1500
     43 H43        -8.8006   -1.1302   52.3689 H       1  ZINC000439870054    0.1600
     44 H44        -2.3611    0.9451   45.8034 H       1  ZINC000439870054    0.0900
     45 H45        -2.7771    2.4142   46.7200 H       1  ZINC000439870054    0.1200
     46 H46        -0.8457    2.6311   45.0218 H       1  ZINC000439870054    0.1100
     47 H47        -0.5126    3.2023   46.6756 H       1  ZINC000439870054    0.0900
@<TRIPOS>BOND
     1     1     2    1
     2     1    29    1
     3     1    30    1
     4     1    31    1
     5     2     3    1
     6     2     4    1
     7     2    32    1
     8     3    33    1
     9     3    34    1
    10     3    35    1
    11     4    28    1
    12     4     5    2
    13     5     6    1
    14     6     7    2
    15     7    28    1
    16     7     8    1
    17     8     9    1
    18     8    10    1
    19     8    11    1
    20    10    36    1
    21    10    37    1
    22    10    38    1
    23    11    12   am
    24    11    26    1
    25    12    13    2
    26    12    14    1
    27    14    15    1
    28    14    39    1
    29    14    40    1
    30    15    25    1
    31    15    16    2
    32    16    17    1
    33    16    41    1
    34    17    18    1
    35    18    19    1
    36    18    25    2
    37    19    24    1
    38    19    20    2
    39    20    21    1
    40    20    42    1
    41    21    22    2
    42    21    43    1
    43    22    23    1
    44    22    24    1
    45    26    27    1
    46    26    44    1
    47    26    45    1
    48    27    28    1
    49    27    46    1
    50    27    47    1
@<TRIPOS>SUBSTRUCTURE
     1 ZINC000439870054        1 TEMP              0 ****  ****    0 ROOT


##########                                Name:    ZINC001013196242
##########                DOCK_Rotatable_Bonds:                   5
##########                         Heavy_Atoms:                  24
##########                    Molecular_Weight:              349.86
##########                DOCK_Rotatable_Bonds:                   5
##########                       Formal_Charge:        -3.05474e-07
##########                     HBond_Acceptors:                   6
##########                        HBond_Donors:                   1
##########                         Heavy_Atoms:                  24
##########                          Grid_Score:          -34.044075
##########                     Grid_vdw_energy:          -32.522278
##########                      Grid_es_energy:           -1.521796
##########           Internal_energy_repulsive:           12.673339

@<TRIPOS>MOLECULE
ZINC001013196242
 48 51 1 0 0
SMALL
USER_CHARGES


@<TRIPOS>ATOM
      1 C1         -0.0248    3.7182   51.3578 C.3     1  ZINC001013196242   -0.1600
      2 C2         -1.2366    3.9981   50.4665 C.3     1  ZINC001013196242    0.1400
      3 H3         -1.0898    4.9320   49.9242 H       1  ZINC001013196242    0.0800
      4 C4         -2.5132    4.0870   51.3292 C.3     1  ZINC001013196242   -0.1400
      5 C5         -3.5799    3.3896   50.4441 C.3     1  ZINC001013196242    0.1300
      6 H6         -3.9836    4.0790   49.7026 H       1  ZINC001013196242    0.1100
      7 N7         -4.6510    2.8187   51.2644 N.am    1  ZINC001013196242   -0.7200
      8 C8         -5.6998    2.2108   50.6753 C.2     1  ZINC001013196242    0.5400
      9 O9         -5.7558    2.1350   49.4662 O.2     1  ZINC001013196242   -0.5200
     10 C10        -6.8025    1.6252   51.5191 C.3     1  ZINC001013196242   -0.1400
     11 C11        -6.4912    1.6259   53.0262 C.3     1  ZINC001013196242   -0.0800
     12 C12        -7.1347    3.0159   53.0734 C.3     1  ZINC001013196242   -0.1600
     13 C13        -7.5992    3.8078   54.2905 C.3     1  ZINC001013196242   -0.1700
     14 C14        -6.4822    4.3552   53.3978 C.3     1  ZINC001013196242   -0.1400
     15 C15        -7.9355    2.6195   51.8283 C.3     1  ZINC001013196242   -0.0800
     16 C16        -2.7427    2.2750   49.7683 C.3     1  ZINC001013196242    0.0800
     17 N17        -1.4242    2.8922   49.5161 N.am    1  ZINC001013196242   -0.6000
     18 C18        -0.5425    2.5037   48.5739 C.2     1  ZINC001013196242    0.6100
     19 O19         0.5194    3.0867   48.4568 O.2     1  ZINC001013196242   -0.5400
     20 C20        -0.8625    1.3782   47.6895 C.2     1  ZINC001013196242   -0.0400
     21 C21        -1.2763    1.4653   46.3771 C.2     1  ZINC001013196242   -0.1400
     22 C22        -1.4667    0.1576   45.9182 C.2     1  ZINC001013196242   -0.1200
     23 Cl23       -1.9871   -0.3019   44.3271 Cl      1  ZINC001013196242   -0.0400
     24 C24        -1.1722   -0.6869   46.9364 C.2     1  ZINC001013196242    0.0400
     25 N25        -0.7988    0.0428   48.0169 N.pl3   1  ZINC001013196242   -0.4000
     26 C26        -0.4016   -0.4997   49.3185 C.3     1  ZINC001013196242    0.0700
     27 H27         0.8717    3.6512   50.7415 H       1  ZINC001013196242    0.0700
     28 H28         0.0900    4.5270   52.0795 H       1  ZINC001013196242    0.0700
     29 H29        -0.1729    2.7770   51.8874 H       1  ZINC001013196242    0.0600
     30 H30        -2.3816    3.5510   52.2690 H       1  ZINC001013196242    0.0900
     31 H31        -2.7836    5.1270   51.5116 H       1  ZINC001013196242    0.0900
     32 H32        -4.6055    2.8783   52.2316 H       1  ZINC001013196242    0.4000
     33 H33        -7.1557    0.6639   51.1457 H       1  ZINC001013196242    0.1000
     34 H34        -7.0416    0.8700   53.5866 H       1  ZINC001013196242    0.1000
     35 H35        -5.4250    1.6297   53.2523 H       1  ZINC001013196242    0.0700
     36 H36        -8.5732    4.2938   54.2333 H       1  ZINC001013196242    0.1000
     37 H37        -7.3186    3.4305   55.2738 H       1  ZINC001013196242    0.0900
     38 H38        -5.4669    4.3378   53.7939 H       1  ZINC001013196242    0.0900
     39 H39        -6.7215    5.2011   52.7532 H       1  ZINC001013196242    0.1000
     40 H40        -8.0272    3.4201   51.0942 H       1  ZINC001013196242    0.0800
     41 H41        -8.8879    2.1404   52.0553 H       1  ZINC001013196242    0.0900
     42 H42        -2.6411    1.4194   50.4358 H       1  ZINC001013196242    0.0800
     43 H43        -3.2040    1.9714   48.8284 H       1  ZINC001013196242    0.1000
     44 H44        -1.4259    2.3723   45.8102 H       1  ZINC001013196242    0.1600
     45 H45        -1.2229   -1.7649   46.8933 H       1  ZINC001013196242    0.1800
     46 H46         0.6847   -0.5767   49.3638 H       1  ZINC001013196242    0.0800
     47 H47        -0.7523    0.1621   50.1103 H       1  ZINC001013196242    0.1000
     48 H48        -0.8416   -1.4883   49.4497 H       1  ZINC001013196242    0.0900
@<TRIPOS>BOND
     1     1     2    1
     2     1    27    1
     3     1    28    1
     4     1    29    1
     5     2     3    1
     6     2    17    1
     7     2     4    1
     8     4     5    1
     9     4    30    1
    10     4    31    1
    11     5     6    1
    12     5     7    1
    13     5    16    1
    14     7     8   am
    15     7    32    1
    16     8     9    2
    17     8    10    1
    18    10    15    1
    19    10    11    1
    20    10    33    1
    21    11    12    1
    22    11    34    1
    23    11    35    1
    24    12    14    1
    25    12    13    1
    26    12    15    1
    27    13    14    1
    28    13    36    1
    29    13    37    1
    30    14    38    1
    31    14    39    1
    32    15    40    1
    33    15    41    1
    34    16    17    1
    35    16    42    1
    36    16    43    1
    37    17    18   am
    38    18    19    2
    39    18    20    1
    40    20    25    1
    41    20    21    2
    42    21    22    1
    43    21    44    1
    44    22    23    1
    45    22    24    2
    46    24    25    1
    47    24    45    1
    48    25    26    1
    49    26    46    1
    50    26    47    1
    51    26    48    1
@<TRIPOS>SUBSTRUCTURE
     1 ZINC001013196242        1 TEMP              0 ****  ****    0 ROOT


##########                                Name:    ZINC000182044395
##########                DOCK_Rotatable_Bonds:                   8
##########                         Heavy_Atoms:                  28
##########                    Molecular_Weight:             398.889
##########                DOCK_Rotatable_Bonds:                   8
##########                       Formal_Charge:          -0.0399999
##########                     HBond_Acceptors:                   6
##########                        HBond_Donors:                   2
##########                         Heavy_Atoms:                  28
##########                          Grid_Score:          -34.039074
##########                     Grid_vdw_energy:          -33.017082
##########                      Grid_es_energy:           -1.021993
##########           Internal_energy_repulsive:           22.398121

@<TRIPOS>MOLECULE
ZINC000182044395
 51 53 1 0 0
SMALL
USER_CHARGES


@<TRIPOS>ATOM
      1 C1         -4.4647    4.2433   55.2774 C.3     1  ZINC000182044395   -0.1800
      2 C2         -5.0608    4.7907   53.9790 C.3     1  ZINC000182044395    0.0800
      3 N3         -5.1497    3.7135   52.9901 N.pl3   1  ZINC000182044395   -0.4800
      4 C4         -4.2094    3.6368   52.0394 C.2     1  ZINC000182044395    0.2500
      5 C5         -4.2206    2.6536   51.0718 C.2     1  ZINC000182044395   -0.3500
      6 C6         -3.1687    2.6035   50.0444 C.2     1  ZINC000182044395    0.5900
      7 O7         -3.4690    2.4853   48.8715 O.2     1  ZINC000182044395   -0.5600
      8 N8         -1.8722    2.6885   50.4027 N.am    1  ZINC000182044395   -0.7200
      9 C9         -0.8247    2.6386   49.3797 C.3     1  ZINC000182044395    0.1100
     10 H10        -1.2748    2.7487   48.3931 H       1  ZINC000182044395    0.0900
     11 C11         0.1726    3.7748   49.6150 C.3     1  ZINC000182044395   -0.1600
     12 C12        -0.0962    1.2955   49.4609 C.3     1  ZINC000182044395    0.1100
     13 H13         0.5756    1.2981   50.3193 H       1  ZINC000182044395    0.1100
     14 O14        -1.0519    0.2433   49.6070 O.3     1  ZINC000182044395   -0.5500
     15 C15         0.7127    1.0758   48.1810 C.3     1  ZINC000182044395   -0.1100
     16 C16        -0.2277    0.8838   47.0192 C.ar    1  ZINC000182044395   -0.0800
     17 C17        -0.5685    1.9596   46.2207 C.ar    1  ZINC000182044395   -0.1000
     18 C18        -1.4314    1.7835   45.1552 C.ar    1  ZINC000182044395   -0.1200
     19 C19        -1.9529    0.5316   44.8877 C.ar    1  ZINC000182044395   -0.1200
     20 C20        -1.6159   -0.5432   45.6891 C.ar    1  ZINC000182044395   -0.1200
     21 C21        -0.7498   -0.3679   46.7522 C.ar    1  ZINC000182044395   -0.1200
     22 C22        -5.3054    1.6595   51.0805 C.2     1  ZINC000182044395    0.4400
     23 O23        -5.3628    0.7749   50.2445 O.2     1  ZINC000182044395   -0.4900
     24 C24        -6.3173    1.7760   52.1472 C.ar    1  ZINC000182044395   -0.1800
     25 C25        -7.3780    0.8750   52.2368 C.ar    1  ZINC000182044395   -0.0200
     26 C26        -8.3093    1.0177   53.2432 C.ar    1  ZINC000182044395   -0.0700
     27 Cl27       -9.6328   -0.0996   53.3610 Cl      1  ZINC000182044395   -0.0500
     28 C28        -8.1927    2.0510   54.1633 C.ar    1  ZINC000182044395   -0.0500
     29 C29        -7.1494    2.9474   54.0862 C.ar    1  ZINC000182044395   -0.1600
     30 C30        -6.1977    2.8224   53.0776 C.ar    1  ZINC000182044395    0.1900
     31 H31        -3.4684    3.8470   55.0811 H       1  ZINC000182044395    0.0700
     32 H32        -4.3985    5.0447   56.0132 H       1  ZINC000182044395    0.0800
     33 H33        -5.1025    3.4479   55.6629 H       1  ZINC000182044395    0.0700
     34 H34        -4.4229    5.5861   53.5935 H       1  ZINC000182044395    0.1000
     35 H35        -6.0571    5.1869   54.1753 H       1  ZINC000182044395    0.1100
     36 H36        -3.4156    4.3690   52.0301 H       1  ZINC000182044395    0.1800
     37 H37        -1.6327    2.7828   51.3379 H       1  ZINC000182044395    0.4100
     38 H38        -0.3464    4.7315   49.5571 H       1  ZINC000182044395    0.0600
     39 H39         0.6228    3.6646   50.6015 H       1  ZINC000182044395    0.0600
     40 H40         0.9520    3.7376   48.8538 H       1  ZINC000182044395    0.0600
     41 H41        -1.6244    0.1223   48.8371 H       1  ZINC000182044395    0.3700
     42 H42         1.3371    0.1895   48.2934 H       1  ZINC000182044395    0.0800
     43 H43         1.3448    1.9446   47.9970 H       1  ZINC000182044395    0.0800
     44 H44        -0.1607    2.9376   46.4295 H       1  ZINC000182044395    0.1200
     45 H45        -1.6980    2.6241   44.5317 H       1  ZINC000182044395    0.1200
     46 H46        -2.6271    0.3940   44.0553 H       1  ZINC000182044395    0.1200
     47 H47        -2.0269   -1.5205   45.4828 H       1  ZINC000182044395    0.1200
     48 H48        -0.4838   -1.2084   47.3762 H       1  ZINC000182044395    0.1200
     49 H49        -7.4693    0.0705   51.5221 H       1  ZINC000182044395    0.1500
     50 H50        -8.9277    2.1529   54.9481 H       1  ZINC000182044395    0.1500
     51 H51        -7.0696    3.7467   54.8080 H       1  ZINC000182044395    0.1500
@<TRIPOS>BOND
     1     1     2    1
     2     1    31    1
     3     1    32    1
     4     1    33    1
     5     2     3    1
     6     2    34    1
     7     2    35    1
     8     3    30    1
     9     3     4    1
    10     4     5    2
    11     4    36    1
    12     5     6    1
    13     5    22    1
    14     6     7    2
    15     6     8   am
    16     8     9    1
    17     8    37    1
    18     9    10    1
    19     9    11    1
    20     9    12    1
    21    11    38    1
    22    11    39    1
    23    11    40    1
    24    12    13    1
    25    12    14    1
    26    12    15    1
    27    14    41    1
    28    15    16    1
    29    15    42    1
    30    15    43    1
    31    16    21   ar
    32    16    17   ar
    33    17    18   ar
    34    17    44    1
    35    18    19   ar
    36    18    45    1
    37    19    20   ar
    38    19    46    1
    39    20    21   ar
    40    20    47    1
    41    21    48    1
    42    22    23    2
    43    22    24    1
    44    24    30   ar
    45    24    25   ar
    46    25    26   ar
    47    25    49    1
    48    26    27    1
    49    26    28   ar
    50    28    29   ar
    51    28    50    1
    52    29    30   ar
    53    29    51    1
@<TRIPOS>SUBSTRUCTURE
     1 ZINC000182044395        1 TEMP              0 ****  ****    0 ROOT


##########                                Name:    ZINC000298969660
##########                DOCK_Rotatable_Bonds:                  10
##########                         Heavy_Atoms:                  29
##########                    Molecular_Weight:             397.474
##########                DOCK_Rotatable_Bonds:                  10
##########                       Formal_Charge:          -0.0100008
##########                     HBond_Acceptors:                   7
##########                        HBond_Donors:                   2
##########                         Heavy_Atoms:                  29
##########                          Grid_Score:          -34.008766
##########                     Grid_vdw_energy:          -33.156780
##########                      Grid_es_energy:           -0.851988
##########           Internal_energy_repulsive:            9.674508

@<TRIPOS>MOLECULE
ZINC000298969660
 56 58 1 0 0
SMALL
USER_CHARGES


@<TRIPOS>ATOM
      1 C1         -1.1543   -0.9969   48.1637 C.3     1  ZINC000298969660    0.0800
      2 N2         -1.5632    0.2638   47.5397 N.am    1  ZINC000298969660   -0.6300
      3 C3         -1.5056    0.4127   46.0835 C.3     1  ZINC000298969660    0.1400
      4 C4         -0.2810    1.2477   45.7042 C.3     1  ZINC000298969660    0.0700
      5 H5         -0.4992    2.3043   45.8592 H       1  ZINC000298969660    0.0500
      6 C6          0.0642    1.0083   44.2320 C.3     1  ZINC000298969660   -0.1500
      7 C7          1.3260    1.8004   43.8761 C.3     1  ZINC000298969660   -0.1200
      8 C8          2.4611    1.3803   44.8151 C.3     1  ZINC000298969660   -0.1600
      9 C9          2.0233    1.6053   46.2647 C.3     1  ZINC000298969660    0.0600
     10 O10         0.8280    0.8653   46.5205 O.3     1  ZINC000298969660   -0.3600
     11 C11        -1.9925    1.2865   48.3053 C.2     1  ZINC000298969660    0.7100
     12 O12        -2.3334    2.3323   47.7873 O.2     1  ZINC000298969660   -0.5400
     13 N13        -2.0440    1.1500   49.6452 N.am    1  ZINC000298969660   -0.6900
     14 C14        -2.4898    2.2119   50.4401 C.ar    1  ZINC000298969660    0.2000
     15 C15        -1.5917    3.1752   50.8808 C.ar    1  ZINC000298969660   -0.1800
     16 C16        -2.0317    4.2235   51.6661 C.ar    1  ZINC000298969660   -0.0600
     17 C17        -3.3655    4.3164   52.0145 C.ar    1  ZINC000298969660   -0.2300
     18 C18        -4.2676    3.3565   51.5769 C.ar    1  ZINC000298969660    0.1500
     19 O19        -5.5790    3.4491   51.9208 O.3     1  ZINC000298969660   -0.2900
     20 C20        -5.9059    3.2367   53.2956 C.3     1  ZINC000298969660    0.0400
     21 C21        -6.6757    1.9487   53.4358 C.2     1  ZINC000298969660    0.5100
     22 O22        -6.2922    0.9482   52.8677 O.2     1  ZINC000298969660   -0.4900
     23 N23        -7.7903    1.9089   54.1925 N.am    1  ZINC000298969660   -0.6700
     24 C24        -8.5051    0.7130   54.3226 C.ar    1  ZINC000298969660    0.1400
     25 C25        -9.0481    0.1012   53.2004 C.ar    1  ZINC000298969660   -0.1400
     26 C26        -9.7531   -1.0790   53.3323 C.ar    1  ZINC000298969660   -0.1000
     27 C27        -9.9191   -1.6513   54.5800 C.ar    1  ZINC000298969660   -0.1300
     28 C28        -9.3799   -1.0444   55.6996 C.ar    1  ZINC000298969660   -0.1000
     29 C29        -8.6681    0.1325   55.5736 C.ar    1  ZINC000298969660   -0.1200
     30 C30        -3.8310    2.3068   50.7844 C.ar    1  ZINC000298969660   -0.1500
     31 H31        -0.0891   -0.9605   48.3924 H       1  ZINC000298969660    0.0600
     32 H32        -1.7185   -1.1465   49.0843 H       1  ZINC000298969660    0.0700
     33 H33        -1.3508   -1.8219   47.4790 H       1  ZINC000298969660    0.0800
     34 H34        -1.4321   -0.5713   45.6202 H       1  ZINC000298969660    0.1000
     35 H35        -2.4087    0.9125   45.7333 H       1  ZINC000298969660    0.0900
     36 H36         0.2429   -0.0544   44.0679 H       1  ZINC000298969660    0.0800
     37 H37        -0.7633    1.3406   43.6052 H       1  ZINC000298969660    0.0700
     38 H38         1.6096    1.5906   42.8447 H       1  ZINC000298969660    0.0700
     39 H39         1.1323    2.8667   43.9927 H       1  ZINC000298969660    0.0600
     40 H40         2.6881    0.3252   44.6628 H       1  ZINC000298969660    0.0700
     41 H41         3.3477    1.9787   44.6052 H       1  ZINC000298969660    0.0700
     42 H42         2.8108    1.2682   46.9387 H       1  ZINC000298969660    0.0900
     43 H43         1.8355    2.6667   46.4271 H       1  ZINC000298969660    0.0400
     44 H44        -1.7720    0.3156   50.0584 H       1  ZINC000298969660    0.4100
     45 H45        -0.5486    3.1047   50.6098 H       1  ZINC000298969660    0.1300
     46 H46        -1.3318    4.9712   52.0084 H       1  ZINC000298969660    0.1300
     47 H47        -3.7065    5.1369   52.6285 H       1  ZINC000298969660    0.1300
     48 H48        -4.9890    3.1777   53.8821 H       1  ZINC000298969660    0.1000
     49 H49        -6.5152    4.0654   53.6564 H       1  ZINC000298969660    0.1000
     50 H50        -8.0969    2.7091   54.6468 H       1  ZINC000298969660    0.4100
     51 H51        -8.9195    0.5482   52.2257 H       1  ZINC000298969660    0.1300
     52 H52       -10.1756   -1.5552   52.4599 H       1  ZINC000298969660    0.1300
     53 H53       -10.4711   -2.5741   54.6806 H       1  ZINC000298969660    0.1200
     54 H54        -9.5118   -1.4935   56.6728 H       1  ZINC000298969660    0.1300
     55 H55        -8.2474    0.6060   56.4483 H       1  ZINC000298969660    0.1300
     56 H56        -4.5313    1.5590   50.4429 H       1  ZINC000298969660    0.1500
@<TRIPOS>BOND
     1     1     2    1
     2     1    31    1
     3     1    32    1
     4     1    33    1
     5     2     3    1
     6     2    11   am
     7     3     4    1
     8     3    34    1
     9     3    35    1
    10     4     5    1
    11     4    10    1
    12     4     6    1
    13     6     7    1
    14     6    36    1
    15     6    37    1
    16     7     8    1
    17     7    38    1
    18     7    39    1
    19     8     9    1
    20     8    40    1
    21     8    41    1
    22     9    10    1
    23     9    42    1
    24     9    43    1
    25    11    12    2
    26    11    13   am
    27    13    14    1
    28    13    44    1
    29    14    30   ar
    30    14    15   ar
    31    15    16   ar
    32    15    45    1
    33    16    17   ar
    34    16    46    1
    35    17    18   ar
    36    17    47    1
    37    18    19    1
    38    18    30   ar
    39    19    20    1
    40    20    21    1
    41    20    48    1
    42    20    49    1
    43    21    22    2
    44    21    23   am
    45    23    24    1
    46    23    50    1
    47    24    29   ar
    48    24    25   ar
    49    25    26   ar
    50    25    51    1
    51    26    27   ar
    52    26    52    1
    53    27    28   ar
    54    27    53    1
    55    28    29   ar
    56    28    54    1
    57    29    55    1
    58    30    56    1
@<TRIPOS>SUBSTRUCTURE
     1 ZINC000298969660        1 TEMP              0 ****  ****    0 ROOT


##########                                Name:    ZINC000885154703
##########                DOCK_Rotatable_Bonds:                   5
##########                         Heavy_Atoms:                  24
##########                    Molecular_Weight:             396.259
##########                DOCK_Rotatable_Bonds:                   5
##########                       Formal_Charge:          -0.0099998
##########                     HBond_Acceptors:                   6
##########                        HBond_Donors:                   1
##########                         Heavy_Atoms:                  24
##########                          Grid_Score:          -34.008713
##########                     Grid_vdw_energy:          -31.410904
##########                      Grid_es_energy:           -2.597810
##########           Internal_energy_repulsive:            8.547526

@<TRIPOS>MOLECULE
ZINC000885154703
 43 45 1 0 0
SMALL
USER_CHARGES


@<TRIPOS>ATOM
      1 C1         -5.4597    2.4123   52.5134 C.3     1  ZINC000885154703   -0.1500
      2 C2         -5.2145    2.9780   51.1131 C.3     1  ZINC000885154703   -0.0300
      3 C3         -3.8558    2.5439   50.6268 C.2     1  ZINC000885154703    0.1700
      4 N4         -2.7372    3.1821   50.7991 N.2     1  ZINC000885154703   -0.3800
      5 O5         -1.8220    2.5708   50.2889 O.3     1  ZINC000885154703    0.0800
      6 C6         -2.2841    1.4505   49.7256 C.2     1  ZINC000885154703    0.1800
      7 C7         -1.4729    0.4152   48.9900 C.3     1  ZINC000885154703    0.0000
      8 H8         -1.9313   -0.5673   49.1027 H       1  ZINC000885154703    0.1300
      9 C9         -0.0296    0.3904   49.5341 C.3     1  ZINC000885154703   -0.1200
     10 C10         0.8447    0.1391   48.2804 C.3     1  ZINC000885154703   -0.1300
     11 C11         0.1252    0.9707   47.1897 C.3     1  ZINC000885154703    0.1400
     12 H12         0.4028    2.0220   47.2666 H       1  ZINC000885154703    0.1000
     13 N13         0.4445    0.4535   45.8567 N.am    1  ZINC000885154703   -0.7100
     14 C14         0.0448    1.1262   44.7594 C.2     1  ZINC000885154703    0.5700
     15 O15        -0.5818    2.1614   44.8756 O.2     1  ZINC000885154703   -0.5100
     16 C16         0.3682    0.6056   43.4156 C.ar    1  ZINC000885154703   -0.1600
     17 C17        -0.6215   -0.0111   42.6441 C.ar    1  ZINC000885154703    0.1500
     18 F18        -1.8779   -0.1331   43.1255 F       1  ZINC000885154703   -0.1200
     19 C19        -0.3104   -0.4955   41.3864 C.ar    1  ZINC000885154703   -0.1500
     20 C20         0.9746   -0.3710   40.8934 C.ar    1  ZINC000885154703   -0.0400
     21 C21         1.9593    0.2391   41.6531 C.ar    1  ZINC000885154703   -0.1100
     22 Br22        3.7136    0.4029   40.9665 Br      1  ZINC000885154703   -0.0300
     23 C23         1.6627    0.7321   42.9068 C.ar    1  ZINC000885154703    0.0100
     24 C24         2.7361    1.3957   43.7305 C.3     1  ZINC000885154703   -0.1300
     25 C25        -1.3755    0.7836   47.4992 C.3     1  ZINC000885154703   -0.1300
     26 N26        -3.5775    1.4216   49.9397 N.2     1  ZINC000885154703   -0.4800
     27 H27        -5.4173    1.3237   52.4780 H       1  ZINC000885154703    0.0600
     28 H28        -4.6942    2.7838   53.1945 H       1  ZINC000885154703    0.0600
     29 H29        -6.4425    2.7263   52.8652 H       1  ZINC000885154703    0.0700
     30 H30        -5.9801    2.6065   50.4319 H       1  ZINC000885154703    0.1000
     31 H31        -5.2570    4.0666   51.1484 H       1  ZINC000885154703    0.0900
     32 H32         0.2230    1.3480   49.9895 H       1  ZINC000885154703    0.0800
     33 H33         0.0931   -0.4194   50.2533 H       1  ZINC000885154703    0.0900
     34 H34         1.8596    0.5039   48.4378 H       1  ZINC000885154703    0.0800
     35 H35         0.8498   -0.9191   48.0189 H       1  ZINC000885154703    0.0800
     36 H36         0.9434   -0.3731   45.7640 H       1  ZINC000885154703    0.4000
     37 H37        -1.0732   -0.9722   40.7886 H       1  ZINC000885154703    0.1500
     38 H38         1.2123   -0.7515   39.9110 H       1  ZINC000885154703    0.1500
     39 H39         2.7517    2.4640   43.5143 H       1  ZINC000885154703    0.0900
     40 H40         2.5283    1.2423   44.7895 H       1  ZINC000885154703    0.0800
     41 H41         3.7045    0.9609   43.4835 H       1  ZINC000885154703    0.0900
     42 H42        -1.7854   -0.0201   46.8874 H       1  ZINC000885154703    0.0900
     43 H43        -1.9147    1.7112   47.3079 H       1  ZINC000885154703    0.0800
@<TRIPOS>BOND
     1     1     2    1
     2     1    27    1
     3     1    28    1
     4     1    29    1
     5     2     3    1
     6     2    30    1
     7     2    31    1
     8     3    26    1
     9     3     4    2
    10     4     5    1
    11     5     6    1
    12     6     7    1
    13     6    26    2
    14     7     8    1
    15     7    25    1
    16     7     9    1
    17     9    10    1
    18     9    32    1
    19     9    33    1
    20    10    11    1
    21    10    34    1
    22    10    35    1
    23    11    12    1
    24    11    13    1
    25    11    25    1
    26    13    14   am
    27    13    36    1
    28    14    15    2
    29    14    16    1
    30    16    23   ar
    31    16    17   ar
    32    17    18    1
    33    17    19   ar
    34    19    20   ar
    35    19    37    1
    36    20    21   ar
    37    20    38    1
    38    21    22    1
    39    21    23   ar
    40    23    24    1
    41    24    39    1
    42    24    40    1
    43    24    41    1
    44    25    42    1
    45    25    43    1
@<TRIPOS>SUBSTRUCTURE
     1 ZINC000885154703        1 TEMP              0 ****  ****    0 ROOT


##########                                Name:    ZINC000534890536
##########                DOCK_Rotatable_Bonds:                   6
##########                         Heavy_Atoms:                  30
##########                    Molecular_Weight:             411.476
##########                DOCK_Rotatable_Bonds:                   6
##########                       Formal_Charge:          0.00999957
##########                     HBond_Acceptors:                   7
##########                        HBond_Donors:                   1
##########                         Heavy_Atoms:                  30
##########                          Grid_Score:          -33.977547
##########                     Grid_vdw_energy:          -32.753407
##########                      Grid_es_energy:           -1.224141
##########           Internal_energy_repulsive:           14.738439

@<TRIPOS>MOLECULE
ZINC000534890536
 56 59 1 0 0
SMALL
USER_CHARGES


@<TRIPOS>ATOM
      1 C1        -10.3554   -2.3912   55.8395 C.3     1  ZINC000534890536    0.0300
      2 O2         -9.6890   -1.4282   56.6585 O.3     1  ZINC000534890536   -0.3200
      3 C3         -9.1431   -0.3548   56.0287 C.ar    1  ZINC000534890536    0.1300
      4 C4         -9.1178   -0.3012   54.6427 C.ar    1  ZINC000534890536   -0.2100
      5 C5         -8.5628    0.7913   54.0049 C.ar    1  ZINC000534890536   -0.0700
      6 C6         -8.0324    1.8306   54.7467 C.ar    1  ZINC000534890536   -0.1100
      7 C7         -7.4271    3.0209   54.0484 C.3     1  ZINC000534890536   -0.0600
      8 H8         -7.0076    3.7226   54.7693 H       1  ZINC000534890536    0.0900
      9 C9         -8.4688    3.7187   53.1345 C.3     1  ZINC000534890536   -0.1200
     10 C10        -7.5899    4.3885   52.0572 C.3     1  ZINC000534890536    0.1000
     11 N11        -6.3074    3.6701   52.0316 N.am    1  ZINC000534890536   -0.6400
     12 C12        -5.2584    3.9635   51.2378 C.2     1  ZINC000534890536    0.7300
     13 O13        -5.3274    4.8941   50.4583 O.2     1  ZINC000534890536   -0.5700
     14 N14        -4.1329    3.2255   51.3082 N.am    1  ZINC000534890536   -0.7300
     15 C15        -2.9933    3.5435   50.4442 C.3     1  ZINC000534890536    0.1600
     16 H16        -3.2236    4.4293   49.8523 H       1  ZINC000534890536    0.1200
     17 C17        -1.7601    3.8164   51.3089 C.3     1  ZINC000534890536   -0.1300
     18 C18        -0.5301    3.8732   50.3950 C.3     1  ZINC000534890536   -0.1300
     19 C19        -0.2801    2.4772   49.8232 C.3     1  ZINC000534890536    0.1100
     20 N20        -1.5031    1.9371   49.2426 N.am    1  ZINC000534890536   -0.5600
     21 C21        -1.3862    0.8795   48.3321 C.ar    1  ZINC000534890536    0.1000
     22 C22        -1.1731   -0.4127   48.7907 C.ar    1  ZINC000534890536   -0.0800
     23 C23        -1.0586   -1.4544   47.8900 C.ar    1  ZINC000534890536   -0.1200
     24 C24        -1.1552   -1.2115   46.5326 C.ar    1  ZINC000534890536   -0.0800
     25 C25        -1.3675    0.0748   46.0704 C.ar    1  ZINC000534890536   -0.1500
     26 C26        -1.4888    1.1211   46.9662 C.ar    1  ZINC000534890536    0.1100
     27 F27        -1.6964    2.3775   46.5150 F       1  ZINC000534890536   -0.1300
     28 C28        -2.7252    2.3858   49.5259 C.2     1  ZINC000534890536    0.5000
     29 O29        -3.6738    1.8309   49.0126 O.2     1  ZINC000534890536   -0.5100
     30 C30        -6.3577    2.5764   53.0195 C.3     1  ZINC000534890536    0.1300
     31 C31        -8.0568    1.7798   56.1283 C.ar    1  ZINC000534890536   -0.0700
     32 C32        -8.6154    0.6919   56.7708 C.ar    1  ZINC000534890536   -0.1500
     33 H33       -11.1793   -1.9111   55.3115 H       1  ZINC000534890536    0.0600
     34 H34        -9.6512   -2.8027   55.1164 H       1  ZINC000534890536    0.0600
     35 H35       -10.7439   -3.1942   56.4659 H       1  ZINC000534890536    0.1000
     36 H36        -9.5313   -1.1129   54.0627 H       1  ZINC000534890536    0.1300
     37 H37        -8.5429    0.8336   52.9259 H       1  ZINC000534890536    0.1300
     38 H38        -9.1392    2.9864   52.6847 H       1  ZINC000534890536    0.0800
     39 H39        -9.0317    4.4668   53.6927 H       1  ZINC000534890536    0.0900
     40 H40        -8.0756    4.3148   51.0842 H       1  ZINC000534890536    0.0700
     41 H41        -7.4236    5.4350   52.3124 H       1  ZINC000534890536    0.0700
     42 H42        -4.0773    2.4839   51.9309 H       1  ZINC000534890536    0.4000
     43 H43        -1.8777    4.7689   51.8257 H       1  ZINC000534890536    0.0900
     44 H44        -1.6387    3.0153   52.0382 H       1  ZINC000534890536    0.0800
     45 H45        -0.7116    4.5748   49.5808 H       1  ZINC000534890536    0.0800
     46 H46         0.3385    4.1937   50.9702 H       1  ZINC000534890536    0.1000
     47 H47         0.4890    2.5357   49.0529 H       1  ZINC000534890536    0.0800
     48 H48         0.0623    1.8173   50.6203 H       1  ZINC000534890536    0.0700
     49 H49        -1.0968   -0.6042   49.8508 H       1  ZINC000534890536    0.1300
     50 H50        -0.8929   -2.4601   48.2471 H       1  ZINC000534890536    0.1300
     51 H51        -1.0645   -2.0278   45.8314 H       1  ZINC000534890536    0.1400
     52 H52        -1.4425    0.2614   45.0093 H       1  ZINC000534890536    0.1400
     53 H53        -5.3887    2.4586   53.5047 H       1  ZINC000534890536    0.0800
     54 H54        -6.6582    1.6451   52.5393 H       1  ZINC000534890536    0.0700
     55 H55        -7.6422    2.5929   56.7054 H       1  ZINC000534890536    0.1300
     56 H56        -8.6343    0.6526   57.8499 H       1  ZINC000534890536    0.1300
@<TRIPOS>BOND
     1     1     2    1
     2     1    33    1
     3     1    34    1
     4     1    35    1
     5     2     3    1
     6     3    32   ar
     7     3     4   ar
     8     4     5   ar
     9     4    36    1
    10     5     6   ar
    11     5    37    1
    12     6     7    1
    13     6    31   ar
    14     7     8    1
    15     7    30    1
    16     7     9    1
    17     9    10    1
    18     9    38    1
    19     9    39    1
    20    10    11    1
    21    10    40    1
    22    10    41    1
    23    11    12   am
    24    11    30    1
    25    12    13    2
    26    12    14   am
    27    14    15    1
    28    14    42    1
    29    15    16    1
    30    15    28    1
    31    15    17    1
    32    17    18    1
    33    17    43    1
    34    17    44    1
    35    18    19    1
    36    18    45    1
    37    18    46    1
    38    19    20    1
    39    19    47    1
    40    19    48    1
    41    20    21    1
    42    20    28   am
    43    21    26   ar
    44    21    22   ar
    45    22    23   ar
    46    22    49    1
    47    23    24   ar
    48    23    50    1
    49    24    25   ar
    50    24    51    1
    51    25    26   ar
    52    25    52    1
    53    26    27    1
    54    28    29    2
    55    30    53    1
    56    30    54    1
    57    31    32   ar
    58    31    55    1
    59    32    56    1
@<TRIPOS>SUBSTRUCTURE
     1 ZINC000534890536        1 TEMP              0 ****  ****    0 ROOT


##########                                Name:    ZINC000937331732
##########                DOCK_Rotatable_Bonds:                   6
##########                         Heavy_Atoms:                  24
##########                    Molecular_Weight:              333.35
##########                DOCK_Rotatable_Bonds:                   6
##########                       Formal_Charge:          -0.0299999
##########                     HBond_Acceptors:                  10
##########                        HBond_Donors:                   1
##########                         Heavy_Atoms:                  24
##########                          Grid_Score:          -33.959061
##########                     Grid_vdw_energy:          -33.421490
##########                      Grid_es_energy:           -0.537571
##########           Internal_energy_repulsive:           25.740915

@<TRIPOS>MOLECULE
ZINC000937331732
 43 45 1 0 0
SMALL
USER_CHARGES


@<TRIPOS>ATOM
      1 C1         -0.6226   -0.4633   49.2958 C.3     1  ZINC000937331732    0.0600
      2 N2         -0.9178    0.5435   48.2733 N.am    1  ZINC000937331732   -0.6100
      3 C3         -0.6487    0.2871   46.9778 C.2     1  ZINC000937331732    0.5000
      4 O4         -0.1608   -0.7764   46.6587 O.2     1  ZINC000937331732   -0.5200
      5 C5         -0.9539    1.3219   45.9256 C.3     1  ZINC000937331732    0.1500
      6 N6         -0.3884    0.8958   44.6431 N.am    1  ZINC000937331732   -0.4400
      7 N7          0.8778    1.2281   44.1420 N.2     1  ZINC000937331732   -0.2800
      8 C8          1.0135    0.6650   42.9848 C.2     1  ZINC000937331732    0.2600
      9 N9         -0.1311   -0.0376   42.6966 N.am    1  ZINC000937331732   -0.5600
     10 C10        -0.3764   -0.8153   41.4796 C.3     1  ZINC000937331732    0.1000
     11 C11        -0.9877    0.1060   43.7276 C.2     1  ZINC000937331732    0.6500
     12 O12        -2.1009   -0.3811   43.8136 O.2     1  ZINC000937331732   -0.5500
     13 C13        -1.5054    1.8289   48.6589 C.3     1  ZINC000937331732    0.1300
     14 H14        -1.4600    2.5360   47.8307 H       1  ZINC000937331732    0.1200
     15 C15        -2.9683    1.6411   49.1409 C.3     1  ZINC000937331732   -0.1500
     16 C16        -3.1423    2.8556   50.0867 C.3     1  ZINC000937331732    0.1000
     17 N17        -1.8377    3.0012   50.7578 N.am    1  ZINC000937331732   -0.6000
     18 C18        -1.6304    3.5887   51.9529 C.2     1  ZINC000937331732    0.6200
     19 O19        -0.5062    3.6534   52.4118 O.2     1  ZINC000937331732   -0.5400
     20 C20        -2.7667    4.1528   52.7039 C.2     1  ZINC000937331732    0.1400
     21 N21        -2.7040    4.7067   53.8962 N.2     1  ZINC000937331732   -0.4400
     22 C22        -3.9227    5.1018   54.2572 C.2     1  ZINC000937331732   -0.0300
     23 C23        -4.7861    4.7876   53.2605 C.2     1  ZINC000937331732   -0.0200
     24 N24        -4.0649    4.1955   52.2792 N.pl3   1  ZINC000937331732   -0.5200
     25 C25        -0.7972    2.4009   49.9050 C.3     1  ZINC000937331732    0.1000
     26 H26         0.3919   -0.3178   49.6668 H       1  ZINC000937331732    0.0700
     27 H27        -1.3288   -0.3620   50.1200 H       1  ZINC000937331732    0.0800
     28 H28        -0.7115   -1.4592   48.8615 H       1  ZINC000937331732    0.0800
     29 H29        -2.0338    1.4329   45.8276 H       1  ZINC000937331732    0.1300
     30 H30        -0.5155    2.2764   46.2168 H       1  ZINC000937331732    0.1300
     31 H31         1.8840    0.7361   42.3495 H       1  ZINC000937331732    0.2300
     32 H32         0.4945   -0.7536   40.8272 H       1  ZINC000937331732    0.1000
     33 H33        -0.5588   -1.8568   41.7446 H       1  ZINC000937331732    0.0800
     34 H34        -1.2475   -0.4144   40.9615 H       1  ZINC000937331732    0.0800
     35 H35        -3.6651    1.6944   48.3044 H       1  ZINC000937331732    0.0900
     36 H36        -3.0833    0.7032   49.6842 H       1  ZINC000937331732    0.0800
     37 H37        -3.3761    3.7525   49.5133 H       1  ZINC000937331732    0.0800
     38 H38        -3.9253    2.6572   50.8186 H       1  ZINC000937331732    0.1100
     39 H39        -4.1798    5.5895   55.1859 H       1  ZINC000937331732    0.1800
     40 H40        -5.8491    4.9773   53.2495 H       1  ZINC000937331732    0.1900
     41 H41        -4.4066    3.8597   51.4358 H       1  ZINC000937331732    0.4300
     42 H42        -0.2938    1.5982   50.4438 H       1  ZINC000937331732    0.0800
     43 H43        -0.0749    3.1622   49.6102 H       1  ZINC000937331732    0.0800
@<TRIPOS>BOND
     1     1     2    1
     2     1    26    1
     3     1    27    1
     4     1    28    1
     5     2     3   am
     6     2    13    1
     7     3     4    2
     8     3     5    1
     9     5     6    1
    10     5    29    1
    11     5    30    1
    12     6    11   am
    13     6     7    1
    14     7     8    2
    15     8     9    1
    16     8    31    1
    17     9    10    1
    18     9    11   am
    19    10    32    1
    20    10    33    1
    21    10    34    1
    22    11    12    2
    23    13    14    1
    24    13    25    1
    25    13    15    1
    26    15    16    1
    27    15    35    1
    28    15    36    1
    29    16    17    1
    30    16    37    1
    31    16    38    1
    32    17    18   am
    33    17    25    1
    34    18    19    2
    35    18    20    1
    36    20    24    1
    37    20    21    2
    38    21    22    1
    39    22    23    2
    40    22    39    1
    41    23    24    1
    42    23    40    1
    43    24    41    1
    44    25    42    1
    45    25    43    1
@<TRIPOS>SUBSTRUCTURE
     1 ZINC000937331732        1 TEMP              0 ****  ****    0 ROOT


##########                                Name:    ZINC001078110631
##########                DOCK_Rotatable_Bonds:                   7
##########                         Heavy_Atoms:                  25
##########                    Molecular_Weight:             353.369
##########                DOCK_Rotatable_Bonds:                   7
##########                       Formal_Charge:           0.0100006
##########                     HBond_Acceptors:                   8
##########                        HBond_Donors:                   2
##########                         Heavy_Atoms:                  25
##########                          Grid_Score:          -33.931431
##########                     Grid_vdw_energy:          -31.890865
##########                      Grid_es_energy:           -2.040566
##########           Internal_energy_repulsive:            8.134647

@<TRIPOS>MOLECULE
ZINC001078110631
 46 48 1 0 0
SMALL
USER_CHARGES


@<TRIPOS>ATOM
      1 O1         -1.5532    1.0165   44.6161 O.2     1  ZINC001078110631   -0.5100
      2 C2         -0.4371    0.5440   44.7141 C.2     1  ZINC001078110631    0.5600
      3 N3         -0.0475   -0.0300   45.8696 N.am    1  ZINC001078110631   -0.7200
      4 C4         -0.9665   -0.0792   47.0094 C.3     1  ZINC001078110631    0.1500
      5 H5         -1.9370   -0.4638   46.6961 H       1  ZINC001078110631    0.1200
      6 C6         -1.1220    1.3241   47.6337 C.3     1  ZINC001078110631    0.0300
      7 N7         -1.2137    1.0755   49.0955 N.3     1  ZINC001078110631   -0.5000
      8 C8         -0.8711    2.2838   49.8575 C.3     1  ZINC001078110631    0.0300
      9 C9         -1.9321    3.3587   49.6130 C.3     1  ZINC001078110631    0.1300
     10 N10        -2.9854    3.2443   50.6248 N.am    1  ZINC001078110631   -0.6200
     11 C11        -3.1166    4.1304   51.7874 C.3     1  ZINC001078110631    0.1000
     12 C12        -4.5589    3.9250   52.3014 C.3     1  ZINC001078110631   -0.1300
     13 C13        -4.8733    2.4977   51.7964 C.3     1  ZINC001078110631   -0.1600
     14 C14        -3.9590    2.3177   50.6046 C.2     1  ZINC001078110631    0.5200
     15 O15        -4.0823    1.4581   49.7580 O.2     1  ZINC001078110631   -0.5200
     16 C16        -0.2279   -0.0078   49.3439 C.3     1  ZINC001078110631    0.0000
     17 C17        -0.3795   -0.9577   48.1334 C.3     1  ZINC001078110631    0.1000
     18 H18         0.5927   -1.3515   47.8372 H       1  ZINC001078110631    0.0700
     19 O19        -1.2718   -2.0278   48.4509 O.3     1  ZINC001078110631   -0.5500
     20 C20         0.4886    0.5936   43.5659 C.ar    1  ZINC001078110631   -0.1900
     21 C21         1.6764    1.3235   43.6536 C.ar    1  ZINC001078110631   -0.0300
     22 C22         2.5372    1.3666   42.5787 C.ar    1  ZINC001078110631   -0.1700
     23 C23         2.2277    0.6872   41.4095 C.ar    1  ZINC001078110631    0.1600
     24 F24         3.0765    0.7340   40.3596 F       1  ZINC001078110631   -0.1200
     25 C25         1.0520   -0.0395   41.3141 C.ar    1  ZINC001078110631   -0.2000
     26 C26         0.1829   -0.0950   42.3866 C.ar    1  ZINC001078110631    0.2000
     27 F27        -0.9635   -0.8036   42.2936 F       1  ZINC001078110631   -0.1000
     28 H28         0.8414   -0.4106   45.9465 H       1  ZINC001078110631    0.4000
     29 H29        -0.2517    1.9398   47.4067 H       1  ZINC001078110631    0.0500
     30 H30        -2.0321    1.8024   47.2717 H       1  ZINC001078110631    0.1000
     31 H31        -0.8342    2.0448   50.9203 H       1  ZINC001078110631    0.0400
     32 H32         0.1019    2.6535   49.5342 H       1  ZINC001078110631    0.0800
     33 H33        -1.4720    4.3448   49.6775 H       1  ZINC001078110631    0.0900
     34 H34        -2.3644    3.2237   48.6216 H       1  ZINC001078110631    0.0800
     35 H35        -2.3982    3.8506   52.5579 H       1  ZINC001078110631    0.0700
     36 H36        -2.9665    5.1681   51.4896 H       1  ZINC001078110631    0.0800
     37 H37        -4.5953    3.9705   53.3898 H       1  ZINC001078110631    0.0900
     38 H38        -5.2381    4.6538   51.8589 H       1  ZINC001078110631    0.0800
     39 H39        -4.6491    1.7618   52.5686 H       1  ZINC001078110631    0.1100
     40 H40        -5.9162    2.4231   51.4882 H       1  ZINC001078110631    0.1000
     41 H41         0.7823    0.3994   49.3845 H       1  ZINC001078110631    0.0600
     42 H42        -0.4647   -0.5324   50.2696 H       1  ZINC001078110631    0.0900
     43 H43        -2.0735   -1.7473   48.9132 H       1  ZINC001078110631    0.3800
     44 H44         1.9195    1.8535   44.5626 H       1  ZINC001078110631    0.1500
     45 H45         3.4553    1.9311   42.6464 H       1  ZINC001078110631    0.1500
     46 H46         0.8163   -0.5663   40.4012 H       1  ZINC001078110631    0.1600
@<TRIPOS>BOND
     1     1     2    2
     2     2     3   am
     3     2    20    1
     4     3     4    1
     5     3    28    1
     6     4     5    1
     7     4    17    1
     8     4     6    1
     9     6     7    1
    10     6    29    1
    11     6    30    1
    12     7     8    1
    13     7    16    1
    14     8     9    1
    15     8    31    1
    16     8    32    1
    17     9    10    1
    18     9    33    1
    19     9    34    1
    20    10    14   am
    21    10    11    1
    22    11    12    1
    23    11    35    1
    24    11    36    1
    25    12    13    1
    26    12    37    1
    27    12    38    1
    28    13    14    1
    29    13    39    1
    30    13    40    1
    31    14    15    2
    32    16    17    1
    33    16    41    1
    34    16    42    1
    35    17    18    1
    36    17    19    1
    37    19    43    1
    38    20    26   ar
    39    20    21   ar
    40    21    22   ar
    41    21    44    1
    42    22    23   ar
    43    22    45    1
    44    23    24    1
    45    23    25   ar
    46    25    26   ar
    47    25    46    1
    48    26    27    1
@<TRIPOS>SUBSTRUCTURE
     1 ZINC001078110631        1 TEMP              0 ****  ****    0 ROOT


##########                                Name:    ZINC001220171460
##########                DOCK_Rotatable_Bonds:                  10
##########                         Heavy_Atoms:                  25
##########                    Molecular_Weight:             383.773
##########                DOCK_Rotatable_Bonds:                  10
##########                       Formal_Charge:           0.0199996
##########                     HBond_Acceptors:                  10
##########                        HBond_Donors:                   3
##########                         Heavy_Atoms:                  25
##########                          Grid_Score:          -33.930397
##########                     Grid_vdw_energy:          -33.727470
##########                      Grid_es_energy:           -0.202925
##########           Internal_energy_repulsive:           16.221439

@<TRIPOS>MOLECULE
ZINC001220171460
 43 44 1 0 0
SMALL
USER_CHARGES


@<TRIPOS>ATOM
      1 C1         -5.7653    5.0170   50.9166 C.3     1  ZINC001220171460    0.0200
      2 O2         -4.9946    3.9373   51.4480 O.3     1  ZINC001220171460   -0.3100
      3 C3         -5.6494    2.7684   51.6833 C.ar    1  ZINC001220171460    0.1000
      4 C4         -6.2732    2.5559   52.9011 C.ar    1  ZINC001220171460   -0.1500
      5 C5         -6.9392    1.3666   53.1398 C.ar    1  ZINC001220171460   -0.0600
      6 Cl6        -7.7211    1.1029   54.6672 Cl      1  ZINC001220171460   -0.0400
      7 C7         -6.9835    0.3862   52.1622 C.ar    1  ZINC001220171460    0.1000
      8 F8         -7.6350   -0.7734   52.3990 F       1  ZINC001220171460   -0.1200
      9 C9         -6.3616    0.5930   50.9431 C.ar    1  ZINC001220171460   -0.1200
     10 C10        -5.6980    1.7856   50.6972 C.ar    1  ZINC001220171460    0.1800
     11 N11        -5.0675    1.9972   49.4630 N.am    1  ZINC001220171460   -0.6700
     12 C12        -3.7336    1.8402   49.3520 C.2     1  ZINC001220171460    0.7100
     13 O13        -3.0769    1.5150   50.3223 O.2     1  ZINC001220171460   -0.5700
     14 N14        -3.1275    2.0435   48.1655 N.am    1  ZINC001220171460   -0.7400
     15 C15        -1.6772    1.8746   48.0453 C.3     1  ZINC001220171460    0.1400
     16 C16        -1.3371    0.3829   48.0297 C.3     1  ZINC001220171460   -0.1400
     17 C17         0.0762    0.1878   47.4772 C.3     1  ZINC001220171460    0.0500
     18 H18         0.3092   -0.8764   47.4428 H       1  ZINC001220171460    0.1000
     19 N19         0.1542    0.7501   46.1222 N.3     1  ZINC001220171460   -0.6500
     20 C20        -0.7818    0.0715   45.2160 C.3     1  ZINC001220171460    0.0100
     21 C21        -1.9668    0.8825   44.6875 C.3     1  ZINC001220171460   -0.2000
     22 C22        -0.8067    0.5268   43.7555 C.3     1  ZINC001220171460   -0.1600
     23 C23         1.0813    0.9008   48.3839 C.3     1  ZINC001220171460    0.4600
     24 F24         1.0734    2.2710   48.1022 F       1  ZINC001220171460   -0.1800
     25 F25         0.7279    0.6979   49.7222 F       1  ZINC001220171460   -0.1800
     26 F26         2.3619    0.3853   48.1565 F       1  ZINC001220171460   -0.1700
     27 H27        -6.1913    4.7218   49.9577 H       1  ZINC001220171460    0.0600
     28 H28        -6.5687    5.2657   51.6099 H       1  ZINC001220171460    0.0600
     29 H29        -5.1237    5.8870   50.7768 H       1  ZINC001220171460    0.1100
     30 H30        -6.2398    3.3186   53.6651 H       1  ZINC001220171460    0.1500
     31 H31        -6.3968   -0.1723   50.1819 H       1  ZINC001220171460    0.1800
     32 H32        -5.5915    2.2565   48.6888 H       1  ZINC001220171460    0.4200
     33 H33        -3.6515    2.3017   47.3911 H       1  ZINC001220171460    0.4000
     34 H34        -1.3333    2.3353   47.1193 H       1  ZINC001220171460    0.0800
     35 H35        -1.1845    2.3507   48.8929 H       1  ZINC001220171460    0.0700
     36 H36        -1.3882   -0.0120   49.0443 H       1  ZINC001220171460    0.1000
     37 H37        -2.0506   -0.1458   47.3977 H       1  ZINC001220171460    0.1000
     38 H38        -0.0110    1.7454   46.1337 H       1  ZINC001220171460    0.3600
     39 H39        -0.9455   -0.9875   45.4158 H       1  ZINC001220171460    0.1200
     40 H40        -2.9103    0.3571   44.5397 H       1  ZINC001220171460    0.1000
     41 H41        -2.0517    1.9195   45.0123 H       1  ZINC001220171460    0.1000
     42 H42        -0.1284    1.3299   43.4671 H       1  ZINC001220171460    0.1000
     43 H43        -0.9870   -0.2325   42.9946 H       1  ZINC001220171460    0.1000
@<TRIPOS>BOND
     1     1     2    1
     2     1    27    1
     3     1    28    1
     4     1    29    1
     5     2     3    1
     6     3    10   ar
     7     3     4   ar
     8     4     5   ar
     9     4    30    1
    10     5     6    1
    11     5     7   ar
    12     7     8    1
    13     7     9   ar
    14     9    10   ar
    15     9    31    1
    16    10    11    1
    17    11    12   am
    18    11    32    1
    19    12    13    2
    20    12    14   am
    21    14    15    1
    22    14    33    1
    23    15    16    1
    24    15    34    1
    25    15    35    1
    26    16    17    1
    27    16    36    1
    28    16    37    1
    29    17    18    1
    30    17    19    1
    31    17    23    1
    32    19    20    1
    33    19    38    1
    34    20    22    1
    35    20    21    1
    36    20    39    1
    37    21    22    1
    38    21    40    1
    39    21    41    1
    40    22    42    1
    41    22    43    1
    42    23    24    1
    43    23    25    1
    44    23    26    1
@<TRIPOS>SUBSTRUCTURE
     1 ZINC001220171460        1 TEMP              0 ****  ****    0 ROOT


##########                                Name:    ZINC000006915700
##########                DOCK_Rotatable_Bonds:                   5
##########                         Heavy_Atoms:                  26
##########                    Molecular_Weight:             369.447
##########                DOCK_Rotatable_Bonds:                   5
##########                       Formal_Charge:        -1.04308e-07
##########                     HBond_Acceptors:                   8
##########                        HBond_Donors:                   1
##########                         Heavy_Atoms:                  26
##########                          Grid_Score:          -33.921268
##########                     Grid_vdw_energy:          -32.762222
##########                      Grid_es_energy:           -1.159046
##########           Internal_energy_repulsive:            5.121290

@<TRIPOS>MOLECULE
ZINC000006915700
 45 48 1 0 0
SMALL
USER_CHARGES


@<TRIPOS>ATOM
      1 C1          1.8828   -0.4175   47.1602 C.3     1  <0>        -0.1200
      2 C2          0.7106    0.2778   47.8034 C.ar    1  <0>        -0.0500
      3 C3         -0.1255   -0.4246   48.6528 C.ar    1  <0>        -0.1300
      4 C4         -1.2001    0.2065   49.2452 C.ar    1  <0>        -0.0600
      5 C5         -1.4426    1.5555   48.9858 C.ar    1  <0>        -0.0700
      6 C6         -2.5939    2.2390   49.6187 C.2     1  <0>         0.4400
      7 N7         -2.4514    3.4814   50.0614 N.2     1  <0>        -0.5200
      8 C8         -3.4817    4.1111   50.6343 C.2     1  <0>         0.3600
      9 C9         -3.6354    5.3791   51.1798 C.2     1  <0>        -0.3200
     10 C10        -4.9494    5.4885   51.6376 C.2     1  <0>         0.5500
     11 O11        -5.4380    6.4688   52.1755 O.2     1  <0>        -0.5200
     12 N12        -5.5871    4.3290   51.3847 N.am    1  <0>        -0.5000
     13 N13        -4.6901    3.4572   50.7597 N.pl3   1  <0>        -0.3300
     14 C14        -4.8045    2.1791   50.2941 C.2     1  <0>         0.3900
     15 S15        -6.3332    1.3149   50.4381 S.3     1  <0>         0.1200
     16 C16        -6.4863    1.2456   52.2403 C.3     1  <0>        -0.1500
     17 C17        -7.5374    0.2331   52.6165 C.2     1  <0>         0.5500
     18 O18        -7.7312   -0.7318   51.9077 O.2     1  <0>        -0.5200
     19 N19        -8.2619    0.4000   53.7405 N.am    1  <0>        -0.6100
     20 C20        -9.3108   -0.5083   54.2267 C.3     1  <0>         0.0900
     21 C21        -9.8766    0.0997   55.5274 C.3     1  <0>        -0.1300
     22 C22        -9.5072    1.6011   55.3987 C.3     1  <0>        -0.1400
     23 C23        -8.1299    1.5205   54.6895 C.3     1  <0>         0.1000
     24 N24        -3.7589    1.5960   49.7289 N.2     1  <0>        -0.5600
     25 C25        -0.5958    2.2582   48.1285 C.ar    1  <0>        -0.0500
     26 C26         0.4785    1.6173   47.5464 C.ar    1  <0>        -0.1300
     27 H27         2.7566   -0.3290   47.8057 H       1  <0>         0.0800
     28 H28         1.6446   -1.4710   47.0135 H       1  <0>         0.0700
     29 H29         2.0951    0.0447   46.1961 H       1  <0>         0.0700
     30 H30         0.0630   -1.4691   48.8525 H       1  <0>         0.1300
     31 H31        -1.8523   -0.3430   49.9077 H       1  <0>         0.1300
     32 H32        -2.8745    6.1433   51.2393 H       1  <0>         0.1800
     33 H33        -6.5124    4.1322   51.5995 H       1  <0>         0.4400
     34 H34        -5.5300    0.9552   52.6753 H       1  <0>         0.1400
     35 H35        -6.7748    2.2263   52.6185 H       1  <0>         0.1400
     36 H36       -10.1023   -0.5930   53.4822 H       1  <0>         0.0800
     37 H37        -8.8848   -1.4906   54.4314 H       1  <0>         0.0800
     38 H38       -10.9581   -0.0287   55.5745 H       1  <0>         0.0900
     39 H39        -9.3964   -0.3422   56.4005 H       1  <0>         0.0800
     40 H40       -10.2357    2.1315   54.7855 H       1  <0>         0.0800
     41 H41        -9.4128    2.0658   56.3801 H       1  <0>         0.0900
     42 H42        -7.3411    1.3195   55.4145 H       1  <0>         0.0800
     43 H43        -7.9252    2.4463   54.1520 H       1  <0>         0.0800
     44 H44        -0.7784    3.3029   47.9238 H       1  <0>         0.1400
     45 H45         1.1350    2.1604   46.8827 H       1  <0>         0.1300
@<TRIPOS>BOND
     1     1     2    1
     2     1    27    1
     3     1    28    1
     4     1    29    1
     5     2    26   ar
     6     2     3   ar
     7     3     4   ar
     8     3    30    1
     9     4     5   ar
    10     4    31    1
    11     5     6    1
    12     5    25   ar
    13     6    24    1
    14     6     7    2
    15     7     8    1
    16     8    13    1
    17     8     9    2
    18     9    10    1
    19     9    32    1
    20    10    11    2
    21    10    12   am
    22    12    13    1
    23    12    33    1
    24    13    14    1
    25    14    15    1
    26    14    24    2
    27    15    16    1
    28    16    17    1
    29    16    34    1
    30    16    35    1
    31    17    18    2
    32    17    19   am
    33    19    23    1
    34    19    20    1
    35    20    21    1
    36    20    36    1
    37    20    37    1
    38    21    22    1
    39    21    38    1
    40    21    39    1
    41    22    23    1
    42    22    40    1
    43    22    41    1
    44    23    42    1
    45    23    43    1
    46    25    26   ar
    47    25    44    1
    48    26    45    1
@<TRIPOS>SUBSTRUCTURE
     1 <0>         1 TEMP              0 ****  ****    0 ROOT


##########                                Name:    ZINC000425987417
##########                DOCK_Rotatable_Bonds:                   9
##########                         Heavy_Atoms:                  25
##########                    Molecular_Weight:             357.419
##########                DOCK_Rotatable_Bonds:                   9
##########                       Formal_Charge:         -0.00999992
##########                     HBond_Acceptors:                   7
##########                        HBond_Donors:                   1
##########                         Heavy_Atoms:                  25
##########                          Grid_Score:          -33.915001
##########                     Grid_vdw_energy:          -34.274220
##########                      Grid_es_energy:            0.359218
##########           Internal_energy_repulsive:           14.684441

@<TRIPOS>MOLECULE
ZINC000425987417
 51 52 1 0 0
SMALL
USER_CHARGES


@<TRIPOS>ATOM
      1 C1         -6.7251    0.8011   51.7367 C.3     1  ZINC000425987417   -0.1500
      2 C2         -6.9028    2.0890   50.9301 C.3     1  ZINC000425987417    0.0400
      3 N3         -5.6013    2.7518   50.7728 N.3     1  ZINC000425987417   -0.5300
      4 C4         -4.8432    2.1656   49.6594 C.3     1  ZINC000425987417    0.0400
      5 C5         -3.3500    2.4282   49.8650 C.3     1  ZINC000425987417    0.1400
      6 N6         -2.5791    1.6537   48.8892 N.am    1  ZINC000425987417   -0.7500
      7 C7         -1.2999    1.9856   48.6246 C.2     1  ZINC000425987417    0.7200
      8 O8         -0.7857    2.9276   49.1960 O.2     1  ZINC000425987417   -0.5800
      9 N9         -0.5907    1.2731   47.7269 N.am    1  ZINC000425987417   -0.6200
     10 C10         0.8083    1.6097   47.4156 C.3     1  ZINC000425987417    0.1300
     11 C11         0.8736    2.0374   45.9502 C.3     1  ZINC000425987417   -0.1000
     12 C12         0.1350    1.0608   45.0734 C.ar    1  ZINC000425987417   -0.0600
     13 C13         0.4430    1.0506   43.7187 C.ar    1  ZINC000425987417   -0.1200
     14 C14        -0.2034    0.1873   42.8585 C.ar    1  ZINC000425987417   -0.1100
     15 C15        -1.1676   -0.6750   43.3457 C.ar    1  ZINC000425987417   -0.1200
     16 C16        -1.4732   -0.6693   44.6915 C.ar    1  ZINC000425987417   -0.1100
     17 C17        -0.8194    0.1947   45.5589 C.ar    1  ZINC000425987417   -0.0900
     18 C18        -1.1800    0.1275   47.0255 C.3     1  ZINC000425987417    0.1800
     19 H19        -2.2643    0.1544   47.1340 H       1  ZINC000425987417    0.0900
     20 C20        -0.6406   -1.1736   47.6233 C.3     1  ZINC000425987417   -0.1600
     21 C21        -5.7665    4.2003   50.5923 C.3     1  ZINC000425987417    0.0500
     22 C22        -5.9015    4.8726   51.9599 C.3     1  ZINC000425987417   -0.1600
     23 C23        -4.5473    4.8570   52.6718 C.3     1  ZINC000425987417    0.4500
     24 F24        -4.1615    3.5337   52.9112 F       1  ZINC000425987417   -0.1800
     25 F25        -3.5899    5.4835   51.8669 F       1  ZINC000425987417   -0.1800
     26 F26        -4.6522    5.5394   53.8886 F       1  ZINC000425987417   -0.1900
     27 H27        -6.3614    1.0448   52.7349 H       1  ZINC000425987417    0.0500
     28 H28        -7.6826    0.2861   51.8145 H       1  ZINC000425987417    0.0600
     29 H29        -6.0047    0.1549   51.2353 H       1  ZINC000425987417    0.0700
     30 H30        -7.3096    1.8493   49.9478 H       1  ZINC000425987417    0.0800
     31 H31        -7.5884    2.7546   51.4548 H       1  ZINC000425987417    0.0400
     32 H32        -5.0217    1.0908   49.6245 H       1  ZINC000425987417    0.0500
     33 H33        -5.1661    2.6182   48.7219 H       1  ZINC000425987417    0.0800
     34 H34        -3.1459    3.4902   49.7289 H       1  ZINC000425987417    0.0800
     35 H35        -3.0641    2.1294   50.8735 H       1  ZINC000425987417    0.0700
     36 H36        -2.9894    0.9022   48.4334 H       1  ZINC000425987417    0.3900
     37 H37         1.1414    2.4282   48.0538 H       1  ZINC000425987417    0.1000
     38 H38         1.4416    0.7368   47.5736 H       1  ZINC000425987417    0.0700
     39 H39         0.4244    3.0248   45.8445 H       1  ZINC000425987417    0.0800
     40 H40         1.9164    2.0834   45.6363 H       1  ZINC000425987417    0.0900
     41 H41         1.1949    1.7246   43.3356 H       1  ZINC000425987417    0.1200
     42 H42         0.0429    0.1856   41.8069 H       1  ZINC000425987417    0.1200
     43 H43        -1.6798   -1.3500   42.6761 H       1  ZINC000425987417    0.1200
     44 H44        -2.2269   -1.3424   45.0726 H       1  ZINC000425987417    0.1200
     45 H45         0.4434   -1.2017   47.5138 H       1  ZINC000425987417    0.0700
     46 H46        -0.9004   -1.2226   48.6808 H       1  ZINC000425987417    0.0600
     47 H47        -1.0808   -2.0231   47.1013 H       1  ZINC000425987417    0.0700
     48 H48        -4.8967    4.6034   50.0735 H       1  ZINC000425987417    0.0500
     49 H49        -6.6628    4.3930   50.0026 H       1  ZINC000425987417    0.0900
     50 H50        -6.2303    5.9034   51.8272 H       1  ZINC000425987417    0.1200
     51 H51        -6.6336    4.3321   52.5598 H       1  ZINC000425987417    0.1100
@<TRIPOS>BOND
     1     1     2    1
     2     1    27    1
     3     1    28    1
     4     1    29    1
     5     2     3    1
     6     2    30    1
     7     2    31    1
     8     3     4    1
     9     3    21    1
    10     4     5    1
    11     4    32    1
    12     4    33    1
    13     5     6    1
    14     5    34    1
    15     5    35    1
    16     6     7   am
    17     6    36    1
    18     7     8    2
    19     7     9   am
    20     9    18    1
    21     9    10    1
    22    10    11    1
    23    10    37    1
    24    10    38    1
    25    11    12    1
    26    11    39    1
    27    11    40    1
    28    12    17   ar
    29    12    13   ar
    30    13    14   ar
    31    13    41    1
    32    14    15   ar
    33    14    42    1
    34    15    16   ar
    35    15    43    1
    36    16    17   ar
    37    16    44    1
    38    17    18    1
    39    18    19    1
    40    18    20    1
    41    20    45    1
    42    20    46    1
    43    20    47    1
    44    21    22    1
    45    21    48    1
    46    21    49    1
    47    22    23    1
    48    22    50    1
    49    22    51    1
    50    23    24    1
    51    23    25    1
    52    23    26    1
@<TRIPOS>SUBSTRUCTURE
     1 ZINC000425987417        1 TEMP              0 ****  ****    0 ROOT


##########                                Name:    ZINC000433961694
##########                DOCK_Rotatable_Bonds:                   7
##########                         Heavy_Atoms:                  29
##########                    Molecular_Weight:             413.472
##########                DOCK_Rotatable_Bonds:                   7
##########                       Formal_Charge:          0.00999992
##########                     HBond_Acceptors:                   8
##########                        HBond_Donors:                   0
##########                         Heavy_Atoms:                  29
##########                          Grid_Score:          -33.911442
##########                     Grid_vdw_energy:          -33.507366
##########                      Grid_es_energy:           -0.404076
##########           Internal_energy_repulsive:           13.530805

@<TRIPOS>MOLECULE
ZINC000433961694
 49 52 1 0 0
SMALL
USER_CHARGES


@<TRIPOS>ATOM
      1 C1         -1.5476    4.7757   52.1779 C.3     1  ZINC000433961694   -0.1000
      2 C2         -1.7642    3.5926   51.2698 C.2     1  ZINC000433961694    0.1600
      3 C3         -2.9678    3.2977   50.7180 C.2     1  ZINC000433961694   -0.3000
      4 C4         -4.2127    4.0507   50.9049 C.2     1  ZINC000433961694    0.6200
      5 O5         -4.3208    5.1717   50.4440 O.2     1  ZINC000433961694   -0.5100
      6 N6         -5.2368    3.5009   51.5871 N.am    1  ZINC000433961694   -0.6100
      7 C7         -6.5382    4.1426   51.8483 C.3     1  ZINC000433961694    0.1100
      8 C8         -7.5215    2.9673   52.0749 C.3     1  ZINC000433961694   -0.1300
      9 C9         -6.6275    1.9563   52.8405 C.3     1  ZINC000433961694    0.0800
     10 H10        -6.5964    2.1967   53.9032 H       1  ZINC000433961694    0.1000
     11 O11        -7.0902    0.6193   52.6399 O.3     1  ZINC000433961694   -0.2900
     12 C12        -8.3158    0.3105   53.1349 C.ar    1  ZINC000433961694    0.1700
     13 C13        -8.9252    1.1209   54.0895 C.ar    1  ZINC000433961694   -0.2600
     14 C14       -10.1716    0.7728   54.5680 C.ar    1  ZINC000433961694    0.1400
     15 N15       -10.7846   -0.3114   54.1321 N.ar    1  ZINC000433961694   -0.5100
     16 C16       -10.2398   -1.1041   53.2285 C.ar    1  ZINC000433961694    0.1400
     17 C17        -8.9983   -0.8216   52.6968 C.ar    1  ZINC000433961694   -0.2000
     18 C18        -5.2436    2.1593   52.1887 C.3     1  ZINC000433961694    0.0600
     19 S19        -2.7676    1.8483   49.7360 S.3     1  ZINC000433961694    0.2100
     20 C20        -1.1119    1.7810   50.1561 C.2     1  ZINC000433961694    0.0400
     21 C21        -0.1447    0.7300   49.6757 C.3     1  ZINC000433961694    0.1400
     22 O22         0.4088    1.1302   48.4204 O.3     1  ZINC000433961694   -0.3000
     23 C23        -0.3607    0.9359   47.3166 C.ar    1  ZINC000433961694    0.1200
     24 C24        -1.0613    1.9974   46.7631 C.ar    1  ZINC000433961694   -0.1800
     25 C25        -1.8429    1.7985   45.6415 C.ar    1  ZINC000433961694   -0.1100
     26 C26        -1.9274    0.5402   45.0701 C.ar    1  ZINC000433961694    0.0600
     27 F27        -2.6924    0.3469   43.9734 F       1  ZINC000433961694   -0.1400
     28 C28        -1.2281   -0.5202   45.6212 C.ar    1  ZINC000433961694   -0.1100
     29 C29        -0.4413   -0.3228   46.7395 C.ar    1  ZINC000433961694   -0.1200
     30 N30        -0.8055    2.7636   50.9408 N.2     1  ZINC000433961694   -0.4500
     31 H31        -1.2695    5.6450   51.5819 H       1  ZINC000433961694    0.0800
     32 H32        -2.4671    4.9882   52.7233 H       1  ZINC000433961694    0.1000
     33 H33        -0.7497    4.5496   52.8852 H       1  ZINC000433961694    0.0800
     34 H34        -6.4811    4.7668   52.7400 H       1  ZINC000433961694    0.0800
     35 H35        -6.8480    4.7359   50.9881 H       1  ZINC000433961694    0.1000
     36 H36        -8.3692    3.2793   52.6850 H       1  ZINC000433961694    0.1000
     37 H37        -7.8578    2.5506   51.1255 H       1  ZINC000433961694    0.1000
     38 H38        -8.4287    2.0095   54.4507 H       1  ZINC000433961694    0.1400
     39 H39       -10.6514    1.3953   55.3087 H       1  ZINC000433961694    0.1600
     40 H40       -10.7743   -1.9823   52.8979 H       1  ZINC000433961694    0.1700
     41 H41        -8.5582   -1.4743   51.9574 H       1  ZINC000433961694    0.1400
     42 H42        -5.0806    1.4027   51.4212 H       1  ZINC000433961694    0.0900
     43 H43        -4.4635    2.0949   52.9474 H       1  ZINC000433961694    0.0800
     44 H44         0.6567    0.6130   50.4052 H       1  ZINC000433961694    0.0900
     45 H45        -0.6684   -0.2183   49.5561 H       1  ZINC000433961694    0.1000
     46 H46        -0.9962    2.9788   47.2091 H       1  ZINC000433961694    0.1400
     47 H47        -2.3885    2.6247   45.2104 H       1  ZINC000433961694    0.1400
     48 H48        -1.2947   -1.5011   45.1743 H       1  ZINC000433961694    0.1500
     49 H49         0.1040   -1.1501   47.1692 H       1  ZINC000433961694    0.1400
@<TRIPOS>BOND
     1     1     2    1
     2     1    31    1
     3     1    32    1
     4     1    33    1
     5     2    30    1
     6     2     3    2
     7     3     4    1
     8     3    19    1
     9     4     5    2
    10     4     6   am
    11     6    18    1
    12     6     7    1
    13     7     8    1
    14     7    34    1
    15     7    35    1
    16     8     9    1
    17     8    36    1
    18     8    37    1
    19     9    10    1
    20     9    11    1
    21     9    18    1
    22    11    12    1
    23    12    17   ar
    24    12    13   ar
    25    13    14   ar
    26    13    38    1
    27    14    15   ar
    28    14    39    1
    29    15    16   ar
    30    16    17   ar
    31    16    40    1
    32    17    41    1
    33    18    42    1
    34    18    43    1
    35    19    20    1
    36    20    21    1
    37    20    30    2
    38    21    22    1
    39    21    44    1
    40    21    45    1
    41    22    23    1
    42    23    29   ar
    43    23    24   ar
    44    24    25   ar
    45    24    46    1
    46    25    26   ar
    47    25    47    1
    48    26    27    1
    49    26    28   ar
    50    28    29   ar
    51    28    48    1
    52    29    49    1
@<TRIPOS>SUBSTRUCTURE
     1 ZINC000433961694        1 TEMP              0 ****  ****    0 ROOT


##########                                Name:    ZINC000676564986
##########                DOCK_Rotatable_Bonds:                   5
##########                         Heavy_Atoms:                  25
##########                    Molecular_Weight:             347.444
##########                DOCK_Rotatable_Bonds:                   5
##########                       Formal_Charge:          -0.0100005
##########                     HBond_Acceptors:                   6
##########                        HBond_Donors:                   1
##########                         Heavy_Atoms:                  25
##########                          Grid_Score:          -33.907101
##########                     Grid_vdw_energy:          -33.888088
##########                      Grid_es_energy:           -0.019013
##########           Internal_energy_repulsive:            5.513903

@<TRIPOS>MOLECULE
ZINC000676564986
 42 45 1 0 0
SMALL
USER_CHARGES


@<TRIPOS>ATOM
      1 C1         -0.7032   -0.3997   42.4154 C.3     1  ZINC000676564986    0.0800
      2 N2         -0.9637    0.3186   43.6654 N.pl3   1  ZINC000676564986   -0.4800
      3 C3         -2.1880    0.6448   44.1681 C.2     1  ZINC000676564986    0.2500
      4 N4         -2.0507    1.2804   45.2955 N.2     1  ZINC000676564986   -0.4600
      5 C5         -0.7334    1.4021   45.5870 C.ar    1  ZINC000676564986   -0.1100
      6 C6         -0.0036    1.9769   46.6412 C.ar    1  ZINC000676564986    0.5100
      7 N7         -0.6514    2.5965   47.6955 N.pl3   1  ZINC000676564986   -0.6900
      8 C8         -0.9474    1.8442   48.9172 C.3     1  ZINC000676564986    0.1700
      9 C9         -2.2623    2.3098   49.4877 C.ar    1  ZINC000676564986   -0.0800
     10 C10        -3.4333    2.1001   48.7824 C.ar    1  ZINC000676564986   -0.1100
     11 C11        -4.6398    2.5253   49.3020 C.ar    1  ZINC000676564986   -0.0700
     12 C12        -4.6766    3.1649   50.5352 C.ar    1  ZINC000676564986   -0.1300
     13 S13        -6.2139    3.7088   51.2025 S.3     1  ZINC000676564986   -0.0100
     14 C14        -6.9821    2.2048   51.7053 C.ar    1  ZINC000676564986   -0.1000
     15 C15        -8.3008    2.2090   52.1438 C.ar    1  ZINC000676564986   -0.1200
     16 C16        -8.8997    1.0285   52.5366 C.ar    1  ZINC000676564986   -0.1000
     17 C17        -8.1890   -0.1572   52.4939 C.ar    1  ZINC000676564986   -0.1200
     18 C18        -6.8764   -0.1651   52.0581 C.ar    1  ZINC000676564986   -0.1000
     19 C19        -6.2726    1.0108   51.6588 C.ar    1  ZINC000676564986   -0.1000
     20 C20        -3.4979    3.3740   51.2411 C.ar    1  ZINC000676564986   -0.0700
     21 C21        -2.2957    2.9410   50.7180 C.ar    1  ZINC000676564986   -0.1100
     22 N22         1.3233    1.9114   46.6025 N.ar    1  ZINC000676564986   -0.5900
     23 C23         1.9499    1.3218   45.6008 C.ar    1  ZINC000676564986    0.3600
     24 N24         1.3080    0.7704   44.5922 N.ar    1  ZINC000676564986   -0.5600
     25 C25        -0.0201    0.7814   44.5475 C.ar    1  ZINC000676564986    0.3000
     26 H26        -0.6737   -1.4715   42.6116 H       1  ZINC000676564986    0.0800
     27 H27        -1.4963   -0.1831   41.6997 H       1  ZINC000676564986    0.0900
     28 H28         0.2543   -0.0791   42.0048 H       1  ZINC000676564986    0.0900
     29 H29        -3.1326    0.4108   43.6998 H       1  ZINC000676564986    0.2200
     30 H30        -0.9096    3.5290   47.6256 H       1  ZINC000676564986    0.4200
     31 H31        -1.0087    0.7814   48.6836 H       1  ZINC000676564986    0.0800
     32 H32        -0.1554    2.0106   49.6473 H       1  ZINC000676564986    0.0800
     33 H33        -3.4040    1.6032   47.8239 H       1  ZINC000676564986    0.1300
     34 H34        -5.5538    2.3614   48.7505 H       1  ZINC000676564986    0.1400
     35 H35        -8.8564    3.1345   52.1777 H       1  ZINC000676564986    0.1200
     36 H36        -9.9244    1.0311   52.8778 H       1  ZINC000676564986    0.1300
     37 H37        -8.6599   -1.0789   52.8021 H       1  ZINC000676564986    0.1300
     38 H38        -6.3243   -1.0927   52.0261 H       1  ZINC000676564986    0.1300
     39 H39        -5.2478    1.0038   51.3183 H       1  ZINC000676564986    0.1300
     40 H40        -3.5228    3.8707   52.1998 H       1  ZINC000676564986    0.1300
     41 H41        -1.3794    3.1032   51.2660 H       1  ZINC000676564986    0.1300
     42 H42         3.0294    1.2910   45.6089 H       1  ZINC000676564986    0.2000
@<TRIPOS>BOND
     1     1     2    1
     2     1    26    1
     3     1    27    1
     4     1    28    1
     5     2    25    1
     6     2     3    1
     7     3     4    2
     8     3    29    1
     9     4     5    1
    10     5    25   ar
    11     5     6   ar
    12     6     7    1
    13     6    22   ar
    14     7     8    1
    15     7    30    1
    16     8     9    1
    17     8    31    1
    18     8    32    1
    19     9    21   ar
    20     9    10   ar
    21    10    11   ar
    22    10    33    1
    23    11    12   ar
    24    11    34    1
    25    12    13    1
    26    12    20   ar
    27    13    14    1
    28    14    19   ar
    29    14    15   ar
    30    15    16   ar
    31    15    35    1
    32    16    17   ar
    33    16    36    1
    34    17    18   ar
    35    17    37    1
    36    18    19   ar
    37    18    38    1
    38    19    39    1
    39    20    21   ar
    40    20    40    1
    41    21    41    1
    42    22    23   ar
    43    23    24   ar
    44    23    42    1
    45    24    25   ar
@<TRIPOS>SUBSTRUCTURE
     1 ZINC000676564986        1 TEMP              0 ****  ****    0 ROOT


##########                                Name:    ZINC001015666108
##########                DOCK_Rotatable_Bonds:                   7
##########                         Heavy_Atoms:                  25
##########                    Molecular_Weight:             346.429
##########                DOCK_Rotatable_Bonds:                   7
##########                       Formal_Charge:          -0.0199997
##########                     HBond_Acceptors:                   7
##########                        HBond_Donors:                   1
##########                         Heavy_Atoms:                  25
##########                          Grid_Score:          -33.894192
##########                     Grid_vdw_energy:          -32.710304
##########                      Grid_es_energy:           -1.183888
##########           Internal_energy_repulsive:           18.295162

@<TRIPOS>MOLECULE
ZINC001015666108
 51 53 1 0 0
SMALL
USER_CHARGES


@<TRIPOS>ATOM
      1 C1        -10.2889    4.4163   48.6994 C.3     1  ZINC001015666108   -0.1400
      2 C2         -9.6578    4.1599   50.0695 C.3     1  ZINC001015666108   -0.0700
      3 C3        -10.7367    3.8108   51.0620 C.2     1  ZINC001015666108   -0.0700
      4 C4        -10.5890    3.0705   52.1998 C.2     1  ZINC001015666108   -0.0900
      5 C5         -9.3413    2.4666   52.6790 C.2     1  ZINC001015666108    0.6100
      6 O6         -9.3521    1.7429   53.6573 O.2     1  ZINC001015666108   -0.5100
      7 N7         -8.1829    2.7130   52.0358 N.am    1  ZINC001015666108   -0.7200
      8 C8         -6.9363    2.1113   52.5155 C.3     1  ZINC001015666108    0.1400
      9 H9         -6.9733    1.9767   53.5966 H       1  ZINC001015666108    0.1100
     10 C10        -6.6903    0.7557   51.8143 C.3     1  ZINC001015666108   -0.1300
     11 C11        -5.7232    1.1313   50.6636 C.3     1  ZINC001015666108    0.0300
     12 N12        -4.8479    2.1620   51.2780 N.3     1  ZINC001015666108   -0.5100
     13 C13        -4.1916    2.9776   50.2475 C.3     1  ZINC001015666108    0.1700
     14 H14        -4.9450    3.3910   49.5770 H       1  ZINC001015666108    0.0900
     15 C15        -3.4212    4.1190   50.9145 C.3     1  ZINC001015666108   -0.1500
     16 C16        -3.2356    2.1188   49.4605 C.2     1  ZINC001015666108    0.1900
     17 N17        -2.3549    1.2799   49.9504 N.2     1  ZINC001015666108   -0.4800
     18 C18        -1.7337    0.7438   48.8847 C.2     1  ZINC001015666108    0.1800
     19 C19        -0.6318   -0.2836   48.9182 C.3     1  ZINC001015666108    0.0000
     20 C20        -0.8605   -1.3131   47.8097 C.3     1  ZINC001015666108   -0.1500
     21 C21         0.7162    0.4071   48.7026 C.3     1  ZINC001015666108   -0.1500
     22 N22        -2.2587    1.2741   47.8209 N.2     1  ZINC001015666108   -0.3800
     23 O23        -3.1274    2.0625   48.1296 O.3     1  ZINC001015666108    0.1000
     24 C24        -5.7338    2.9915   52.1273 C.3     1  ZINC001015666108    0.0300
     25 O25       -11.7917    2.9918   52.8059 O.3     1  ZINC001015666108   -0.1700
     26 C26       -12.6983    3.6622   52.0833 C.2     1  ZINC001015666108    0.0000
     27 C27       -12.0871    4.1886   50.9991 C.2     1  ZINC001015666108   -0.2200
     28 H28        -9.5085    4.6689   47.9815 H       1  ZINC001015666108    0.0600
     29 H29       -10.8122    3.5199   48.3670 H       1  ZINC001015666108    0.0600
     30 H30       -10.9954    5.2429   48.7738 H       1  ZINC001015666108    0.0500
     31 H31        -8.9513    3.3333   49.9951 H       1  ZINC001015666108    0.0900
     32 H32        -9.1345    5.0564   50.4020 H       1  ZINC001015666108    0.0700
     33 H33        -8.1744    3.2890   51.2553 H       1  ZINC001015666108    0.4000
     34 H34        -6.2206    0.0477   52.4973 H       1  ZINC001015666108    0.0900
     35 H35        -7.6220    0.3514   51.4187 H       1  ZINC001015666108    0.0800
     36 H36        -5.1385    0.2649   50.3543 H       1  ZINC001015666108    0.0800
     37 H37        -6.2730    1.5470   49.8193 H       1  ZINC001015666108    0.0500
     38 H38        -2.6679    3.7057   51.5851 H       1  ZINC001015666108    0.0800
     39 H39        -2.9343    4.7242   50.1498 H       1  ZINC001015666108    0.0700
     40 H40        -4.1127    4.7402   51.4837 H       1  ZINC001015666108    0.0800
     41 H41        -0.6323   -0.7855   49.8858 H       1  ZINC001015666108    0.1000
     42 H42        -0.8601   -0.8113   46.8421 H       1  ZINC001015666108    0.0600
     43 H43        -0.0635   -2.0562   47.8339 H       1  ZINC001015666108    0.0700
     44 H44        -1.8209   -1.8052   47.9633 H       1  ZINC001015666108    0.0600
     45 H45         0.7167    0.9090   47.7350 H       1  ZINC001015666108    0.0600
     46 H46         0.8791    1.1405   49.4923 H       1  ZINC001015666108    0.0600
     47 H47         1.5133   -0.3361   48.7268 H       1  ZINC001015666108    0.0700
     48 H48        -6.0762    3.8619   51.5676 H       1  ZINC001015666108    0.0600
     49 H49        -5.1991    3.3092   53.0224 H       1  ZINC001015666108    0.1000
     50 H50       -13.7447    3.7682   52.3287 H       1  ZINC001015666108    0.2100
     51 H51       -12.5517    4.7829   50.2261 H       1  ZINC001015666108    0.1600
@<TRIPOS>BOND
     1     1     2    1
     2     1    28    1
     3     1    29    1
     4     1    30    1
     5     2     3    1
     6     2    31    1
     7     2    32    1
     8     3    27    1
     9     3     4    2
    10     4     5    1
    11     4    25    1
    12     5     6    2
    13     5     7   am
    14     7     8    1
    15     7    33    1
    16     8     9    1
    17     8    24    1
    18     8    10    1
    19    10    11    1
    20    10    34    1
    21    10    35    1
    22    11    12    1
    23    11    36    1
    24    11    37    1
    25    12    13    1
    26    12    24    1
    27    13    14    1
    28    13    15    1
    29    13    16    1
    30    15    38    1
    31    15    39    1
    32    15    40    1
    33    16    23    1
    34    16    17    2
    35    17    18    1
    36    18    19    1
    37    18    22    2
    38    19    20    1
    39    19    21    1
    40    19    41    1
    41    20    42    1
    42    20    43    1
    43    20    44    1
    44    21    45    1
    45    21    46    1
    46    21    47    1
    47    22    23    1
    48    24    48    1
    49    24    49    1
    50    25    26    1
    51    26    27    2
    52    26    50    1
    53    27    51    1
@<TRIPOS>SUBSTRUCTURE
     1 ZINC001015666108        1 TEMP              0 ****  ****    0 ROOT


##########                                Name:    ZINC000673213454
##########                DOCK_Rotatable_Bonds:                   7
##########                         Heavy_Atoms:                  26
##########                    Molecular_Weight:             360.453
##########                DOCK_Rotatable_Bonds:                   7
##########                       Formal_Charge:          -0.0100001
##########                     HBond_Acceptors:                   6
##########                        HBond_Donors:                   1
##########                         Heavy_Atoms:                  26
##########                          Grid_Score:          -33.844727
##########                     Grid_vdw_energy:          -31.920967
##########                      Grid_es_energy:           -1.923759
##########           Internal_energy_repulsive:           16.188089

@<TRIPOS>MOLECULE
ZINC000673213454
 54 56 1 0 0
SMALL
USER_CHARGES


@<TRIPOS>ATOM
      1 C1         -6.0210    3.6380   51.2909 C.3     1  ZINC000673213454   -0.1700
      2 C2         -4.5274    3.5150   51.5993 C.3     1  ZINC000673213454    0.1400
      3 H3         -4.3510    2.6152   52.1886 H       1  ZINC000673213454    0.0900
      4 C4         -4.0672    4.7411   52.3903 C.3     1  ZINC000673213454   -0.1200
      5 C5         -3.9323    4.3728   53.8691 C.3     1  ZINC000673213454   -0.1300
      6 H6         -3.3127    3.4836   53.9849 H       1  ZINC000673213454    0.0800
      7 C7         -5.3276    4.1470   54.5007 C.3     1  ZINC000673213454   -0.1500
      8 C8         -5.1681    4.8181   55.8887 C.3     1  ZINC000673213454    0.0500
      9 O9         -4.3413    5.9693   55.6133 O.3     1  ZINC000673213454   -0.3800
     10 C10        -3.3396    5.5508   54.6665 C.3     1  ZINC000673213454    0.0500
     11 N11        -3.7750    3.4324   50.3449 N.am    1  ZINC000673213454   -0.6900
     12 C12        -3.7091    2.2652   49.6742 C.2     1  ZINC000673213454    0.5100
     13 O13        -4.2742    1.2831   50.1085 O.2     1  ZINC000673213454   -0.5100
     14 C14        -2.9401    2.1806   48.3956 C.2     1  ZINC000673213454    0.5000
     15 O15        -3.4984    2.3825   47.3372 O.2     1  ZINC000673213454   -0.5200
     16 N16        -1.6264    1.8801   48.4179 N.am    1  ZINC000673213454   -0.5800
     17 C17        -0.9753    1.6401   49.7196 C.3     1  ZINC000673213454    0.1100
     18 C18        -0.0110    0.4474   49.6419 C.3     1  ZINC000673213454   -0.1700
     19 C19        -0.6272   -0.6494   48.7970 C.3     1  ZINC000673213454    0.0800
     20 O20        -0.2203   -0.4696   47.4469 O.3     1  ZINC000673213454   -0.3800
     21 C21        -0.9565    0.3550   46.6206 C.3     1  ZINC000673213454    0.1500
     22 H22        -1.9911    0.0130   46.5942 H       1  ZINC000673213454    0.0600
     23 C23        -0.3791    0.3167   45.2291 C.ar    1  ZINC000673213454   -0.0800
     24 C24        -1.1073   -0.2387   44.1937 C.ar    1  ZINC000673213454   -0.0900
     25 C25        -0.5777   -0.2738   42.9173 C.ar    1  ZINC000673213454   -0.1300
     26 C26         0.6800    0.2467   42.6763 C.ar    1  ZINC000673213454   -0.1200
     27 C27         1.4079    0.8029   43.7115 C.ar    1  ZINC000673213454   -0.1300
     28 C28         0.8765    0.8419   44.9871 C.ar    1  ZINC000673213454   -0.0900
     29 C29        -0.9072    1.7993   47.1600 C.3     1  ZINC000673213454    0.0700
     30 H30        -6.1973    4.5378   50.7015 H       1  ZINC000673213454    0.0600
     31 H31        -6.3488    2.7645   50.7274 H       1  ZINC000673213454    0.0600
     32 H32        -6.5808    3.6995   52.2241 H       1  ZINC000673213454    0.0700
     33 H33        -3.1027    5.0776   52.0102 H       1  ZINC000673213454    0.0800
     34 H34        -4.8000    5.5405   52.2803 H       1  ZINC000673213454    0.0900
     35 H35        -6.1037    4.6414   53.9164 H       1  ZINC000673213454    0.0800
     36 H36        -5.5397    3.0830   54.6052 H       1  ZINC000673213454    0.0800
     37 H37        -6.1378    5.1267   56.2795 H       1  ZINC000673213454    0.0900
     38 H38        -4.6689    4.1448   56.5856 H       1  ZINC000673213454    0.0600
     39 H39        -2.4415    5.2302   55.1944 H       1  ZINC000673213454    0.0600
     40 H40        -3.1014    6.3726   53.9912 H       1  ZINC000673213454    0.0900
     41 H41        -3.3243    4.2177   49.9971 H       1  ZINC000673213454    0.4100
     42 H42        -0.4196    2.5312   50.0114 H       1  ZINC000673213454    0.0800
     43 H43        -1.7393    1.4345   50.4693 H       1  ZINC000673213454    0.0900
     44 H44         0.9280    0.7686   49.1912 H       1  ZINC000673213454    0.0800
     45 H45         0.1793    0.0685   50.6460 H       1  ZINC000673213454    0.0900
     46 H46        -0.2869   -1.6212   49.1550 H       1  ZINC000673213454    0.1000
     47 H47        -1.7139   -0.5937   48.8617 H       1  ZINC000673213454    0.0500
     48 H48        -2.0900   -0.6453   44.3819 H       1  ZINC000673213454    0.1300
     49 H49        -1.1464   -0.7083   42.1084 H       1  ZINC000673213454    0.1200
     50 H50         1.0941    0.2187   41.6792 H       1  ZINC000673213454    0.1200
     51 H51         2.3906    1.2093   43.5233 H       1  ZINC000673213454    0.1200
     52 H52         1.4451    1.2765   45.7959 H       1  ZINC000673213454    0.1300
     53 H53        -1.3677    2.4728   46.4372 H       1  ZINC000673213454    0.1200
     54 H54         0.1306    2.0922   47.3193 H       1  ZINC000673213454    0.0800
@<TRIPOS>BOND
     1     1     2    1
     2     1    30    1
     3     1    31    1
     4     1    32    1
     5     2     3    1
     6     2     4    1
     7     2    11    1
     8     4     5    1
     9     4    33    1
    10     4    34    1
    11     5     6    1
    12     5    10    1
    13     5     7    1
    14     7     8    1
    15     7    35    1
    16     7    36    1
    17     8     9    1
    18     8    37    1
    19     8    38    1
    20     9    10    1
    21    10    39    1
    22    10    40    1
    23    11    12   am
    24    11    41    1
    25    12    13    2
    26    12    14    1
    27    14    15    2
    28    14    16   am
    29    16    29    1
    30    16    17    1
    31    17    18    1
    32    17    42    1
    33    17    43    1
    34    18    19    1
    35    18    44    1
    36    18    45    1
    37    19    20    1
    38    19    46    1
    39    19    47    1
    40    20    21    1
    41    21    22    1
    42    21    23    1
    43    21    29    1
    44    23    28   ar
    45    23    24   ar
    46    24    25   ar
    47    24    48    1
    48    25    26   ar
    49    25    49    1
    50    26    27   ar
    51    26    50    1
    52    27    28   ar
    53    27    51    1
    54    28    52    1
    55    29    53    1
    56    29    54    1
@<TRIPOS>SUBSTRUCTURE
     1 ZINC000673213454        1 TEMP              0 ****  ****    0 ROOT


##########                                Name:    ZINC000284209281
##########                DOCK_Rotatable_Bonds:                   8
##########                         Heavy_Atoms:                  26
##########                    Molecular_Weight:             353.424
##########                DOCK_Rotatable_Bonds:                   8
##########                       Formal_Charge:          0.00999954
##########                     HBond_Acceptors:                   7
##########                        HBond_Donors:                   1
##########                         Heavy_Atoms:                  26
##########                          Grid_Score:          -33.839748
##########                     Grid_vdw_energy:          -33.113426
##########                      Grid_es_energy:           -0.726323
##########           Internal_energy_repulsive:            9.906420

@<TRIPOS>MOLECULE
ZINC000284209281
 49 51 1 0 0
SMALL
USER_CHARGES


@<TRIPOS>ATOM
      1 O1        -10.3720    0.5300   54.4355 O.2     1  <0>        -0.5100
      2 C2        -10.1991    0.3218   53.2525 C.2     1  <0>         0.5100
      3 N3        -11.1912    0.5652   52.3734 N.am    1  <0>        -0.7000
      4 C4        -12.4804    1.0751   52.8466 C.3     1  <0>         0.1200
      5 C5        -13.1659    1.8521   51.7207 C.3     1  <0>        -0.1000
      6 C6        -13.6902    0.8856   50.6903 C.ar    1  <0>        -0.0400
      7 C7        -14.7725    0.0659   50.9720 C.ar    1  <0>        -0.1700
      8 C8        -15.2256   -0.8082   50.0022 C.ar    1  <0>         0.1000
      9 N9        -14.6411   -0.8680   48.8217 N.ar    1  <0>        -0.4900
     10 C10       -13.6099   -0.1037   48.5190 C.ar    1  <0>         0.1000
     11 C11       -13.1056    0.7988   49.4362 C.ar    1  <0>        -0.1700
     12 C12        -8.8839   -0.1984   52.7698 C.2     1  <0>         0.5100
     13 O13        -8.7290   -1.3895   52.5965 O.2     1  <0>        -0.5200
     14 N14        -7.8695    0.6553   52.5270 N.am    1  <0>        -0.5800
     15 C15        -6.5690    0.1651   52.0459 C.3     1  <0>         0.0800
     16 C16        -6.1740    0.9714   50.8040 C.3     1  <0>         0.0400
     17 N17        -6.2190    2.4052   51.1204 N.3     1  <0>        -0.5300
     18 C18        -5.6830    3.2060   50.0116 C.3     1  <0>         0.1000
     19 C19        -4.1947    2.9913   49.9106 C.ar    1  <0>         0.1300
     20 C20        -3.3759    3.3837   50.9523 C.ar    1  <0>        -0.1500
     21 C21        -2.0079    3.1812   50.8496 C.ar    1  <0>        -0.0700
     22 C22        -1.5132    2.5891   49.6978 C.ar    1  <0>        -0.1700
     23 C23        -2.3936    2.2228   48.6972 C.ar    1  <0>         0.1000
     24 N24        -3.6895    2.4261   48.8314 N.ar    1  <0>        -0.4800
     25 C25        -7.5812    2.8318   51.4674 C.3     1  <0>         0.0400
     26 C26        -8.0357    2.1024   52.7306 C.3     1  <0>         0.1100
     27 H27       -11.0516    0.4026   51.4273 H       1  <0>         0.4100
     28 H28       -13.1126    0.2402   53.1491 H       1  <0>         0.0800
     29 H29       -12.3192    1.7360   53.6983 H       1  <0>         0.0800
     30 H30       -13.9937    2.4308   52.1305 H       1  <0>         0.0900
     31 H31       -12.4471    2.5259   51.2544 H       1  <0>         0.0900
     32 H32       -15.2551    0.1097   51.9372 H       1  <0>         0.1400
     33 H33       -16.0681   -1.4500   50.2137 H       1  <0>         0.1600
     34 H34       -13.1569   -0.1811   47.5417 H       1  <0>         0.1600
     35 H35       -12.2611    1.4223   49.1822 H       1  <0>         0.1400
     36 H36        -5.8169    0.2984   52.8235 H       1  <0>         0.0800
     37 H37        -6.6486   -0.8908   51.7869 H       1  <0>         0.1400
     38 H38        -5.1641    0.6977   50.4988 H       1  <0>         0.0900
     39 H39        -6.8704    0.7556   49.9936 H       1  <0>         0.0400
     40 H40        -6.1583    2.9002   49.0796 H       1  <0>         0.0900
     41 H41        -5.8863    4.2612   50.1941 H       1  <0>         0.0600
     42 H42        -3.7961    3.8425   51.8350 H       1  <0>         0.1400
     43 H43        -1.3437    3.4781   51.6477 H       1  <0>         0.1400
     44 H44        -0.4533    2.4165   49.5837 H       1  <0>         0.1400
     45 H45        -2.0162    1.7613   47.7967 H       1  <0>         0.1600
     46 H46        -7.5917    3.9074   51.6432 H       1  <0>         0.1000
     47 H47        -8.2580    2.5902   50.6478 H       1  <0>         0.0400
     48 H48        -9.0839    2.3282   52.9266 H       1  <0>         0.1000
     49 H49        -7.4255    2.4196   53.5762 H       1  <0>         0.0800
@<TRIPOS>BOND
     1     1     2    2
     2     2     3   am
     3     2    12    1
     4     3     4    1
     5     3    27    1
     6     4     5    1
     7     4    28    1
     8     4    29    1
     9     5     6    1
    10     5    30    1
    11     5    31    1
    12     6    11   ar
    13     6     7   ar
    14     7     8   ar
    15     7    32    1
    16     8     9   ar
    17     8    33    1
    18     9    10   ar
    19    10    11   ar
    20    10    34    1
    21    11    35    1
    22    12    13    2
    23    12    14   am
    24    14    26    1
    25    14    15    1
    26    15    16    1
    27    15    36    1
    28    15    37    1
    29    16    17    1
    30    16    38    1
    31    16    39    1
    32    17    18    1
    33    17    25    1
    34    18    19    1
    35    18    40    1
    36    18    41    1
    37    19    24   ar
    38    19    20   ar
    39    20    21   ar
    40    20    42    1
    41    21    22   ar
    42    21    43    1
    43    22    23   ar
    44    22    44    1
    45    23    24   ar
    46    23    45    1
    47    25    26    1
    48    25    46    1
    49    25    47    1
    50    26    48    1
    51    26    49    1
@<TRIPOS>SUBSTRUCTURE
     1 <0>         1 TEMP              0 ****  ****    0 ROOT


##########                                Name:    ZINC000489986384
##########                DOCK_Rotatable_Bonds:                  11
##########                         Heavy_Atoms:                  31
##########                    Molecular_Weight:             415.492
##########                DOCK_Rotatable_Bonds:                  11
##########                       Formal_Charge:          -0.0499997
##########                     HBond_Acceptors:                   6
##########                        HBond_Donors:                   2
##########                         Heavy_Atoms:                  31
##########                          Grid_Score:          -33.832272
##########                     Grid_vdw_energy:          -33.043480
##########                      Grid_es_energy:           -0.788791
##########           Internal_energy_repulsive:           16.065517

@<TRIPOS>MOLECULE
ZINC000489986384
 56 59 1 0 0
SMALL
USER_CHARGES


@<TRIPOS>ATOM
      1 O1          2.3232    0.9746   49.2510 O.2     1  ZINC000489986384   -0.5000
      2 C2          1.2963    0.9844   49.8962 C.2     1  ZINC000489986384    0.4900
      3 C3          0.1381    0.1134   49.4826 C.3     1  ZINC000489986384    0.0900
      4 N4         -0.5314    0.7090   48.3236 N.pl3   1  ZINC000489986384   -0.4700
      5 C5         -0.0301    0.7865   47.0396 C.ar    1  ZINC000489986384    0.0700
      6 C6          1.1521    0.3796   46.4372 C.ar    1  ZINC000489986384   -0.1100
      7 C7          1.3498    0.6145   45.0928 C.ar    1  ZINC000489986384   -0.0900
      8 C8          0.3757    1.2545   44.3402 C.ar    1  ZINC000489986384   -0.1300
      9 C9         -0.7941    1.6625   44.9164 C.ar    1  ZINC000489986384   -0.0600
     10 C10        -1.0167    1.4344   46.2766 C.ar    1  ZINC000489986384    0.0500
     11 N11        -2.0465    1.7130   47.1167 N.2     1  ZINC000489986384   -0.4600
     12 C12        -1.7647    1.2830   48.3118 C.2     1  ZINC000489986384    0.2800
     13 C13        -2.6681    1.4122   49.5111 C.3     1  ZINC000489986384    0.1400
     14 O14        -4.0154    1.6025   49.0743 O.3     1  ZINC000489986384   -0.3000
     15 C15        -4.8767    2.1695   49.9595 C.ar    1  ZINC000489986384    0.1300
     16 C16        -5.8689    1.4022   50.5522 C.ar    1  ZINC000489986384   -0.2100
     17 C17        -6.7429    1.9809   51.4521 C.ar    1  ZINC000489986384   -0.0800
     18 C18        -6.6296    3.3237   51.7617 C.ar    1  ZINC000489986384   -0.1600
     19 C19        -5.6419    4.0906   51.1720 C.ar    1  ZINC000489986384   -0.0800
     20 C20        -4.7616    3.5153   50.2761 C.ar    1  ZINC000489986384   -0.1500
     21 N21         1.1928    1.7700   50.9864 N.am    1  ZINC000489986384   -0.7300
     22 C22         2.3187    2.6167   51.3885 C.3     1  ZINC000489986384    0.1300
     23 C23         1.8514    4.0697   51.4953 C.3     1  ZINC000489986384   -0.0600
     24 H24         2.7048    4.7105   51.7178 H       1  ZINC000489986384    0.0900
     25 C25         1.2214    4.5016   50.1697 C.3     1  ZINC000489986384    0.0800
     26 O26         2.2258    4.5363   49.1538 O.3     1  ZINC000489986384   -0.5700
     27 C27         0.8320    4.1897   52.5987 C.ar    1  ZINC000489986384   -0.0700
     28 C28        -0.5029    3.9454   52.3359 C.ar    1  ZINC000489986384   -0.1100
     29 C29        -1.4380    4.0556   53.3481 C.ar    1  ZINC000489986384   -0.1200
     30 C30        -1.0381    4.4096   54.6231 C.ar    1  ZINC000489986384   -0.1200
     31 C31         0.2970    4.6531   54.8861 C.ar    1  ZINC000489986384   -0.1200
     32 C32         1.2327    4.5388   53.8750 C.ar    1  ZINC000489986384   -0.1100
     33 H33         0.5053   -0.8788   49.2197 H       1  ZINC000489986384    0.1200
     34 H34        -0.5686    0.0322   50.3084 H       1  ZINC000489986384    0.1200
     35 H35         1.9139   -0.1183   47.0186 H       1  ZINC000489986384    0.1200
     36 H36         2.2692    0.2985   44.6227 H       1  ZINC000489986384    0.1300
     37 H37         0.5439    1.4323   43.2883 H       1  ZINC000489986384    0.1300
     38 H38        -1.5454    2.1605   44.3214 H       1  ZINC000489986384    0.1300
     39 H39        -2.6057    0.5052   50.1124 H       1  ZINC000489986384    0.0800
     40 H40        -2.3563    2.2676   50.1104 H       1  ZINC000489986384    0.1000
     41 H41        -5.9582    0.3535   50.3102 H       1  ZINC000489986384    0.1300
     42 H42        -7.5155    1.3840   51.9139 H       1  ZINC000489986384    0.1300
     43 H43        -7.3141    3.7742   52.4652 H       1  ZINC000489986384    0.1200
     44 H44        -5.5556    5.1393   51.4152 H       1  ZINC000489986384    0.1300
     45 H45        -3.9901    4.1148   49.8158 H       1  ZINC000489986384    0.1300
     46 H46         0.3729    1.7749   51.5047 H       1  ZINC000489986384    0.4000
     47 H47         2.6960    2.2845   52.3556 H       1  ZINC000489986384    0.0800
     48 H48         3.1120    2.5440   50.6445 H       1  ZINC000489986384    0.0800
     49 H49         0.4443    3.7910   49.8881 H       1  ZINC000489986384    0.0500
     50 H50         0.7834    5.4934   50.2816 H       1  ZINC000489986384    0.0500
     51 H51         2.6919    3.6976   49.0327 H       1  ZINC000489986384    0.3800
     52 H52        -0.8153    3.6689   51.3399 H       1  ZINC000489986384    0.1200
     53 H53        -2.4810    3.8654   53.1426 H       1  ZINC000489986384    0.1200
     54 H54        -1.7687    4.4963   55.4137 H       1  ZINC000489986384    0.1200
     55 H55         0.6094    4.9299   55.8821 H       1  ZINC000489986384    0.1200
     56 H56         2.2758    4.7289   54.0804 H       1  ZINC000489986384    0.1200
@<TRIPOS>BOND
     1     1     2    2
     2     2     3    1
     3     2    21   am
     4     3     4    1
     5     3    33    1
     6     3    34    1
     7     4    12    1
     8     4     5    1
     9     5    10   ar
    10     5     6   ar
    11     6     7   ar
    12     6    35    1
    13     7     8   ar
    14     7    36    1
    15     8     9   ar
    16     8    37    1
    17     9    10   ar
    18     9    38    1
    19    10    11    1
    20    11    12    2
    21    12    13    1
    22    13    14    1
    23    13    39    1
    24    13    40    1
    25    14    15    1
    26    15    20   ar
    27    15    16   ar
    28    16    17   ar
    29    16    41    1
    30    17    18   ar
    31    17    42    1
    32    18    19   ar
    33    18    43    1
    34    19    20   ar
    35    19    44    1
    36    20    45    1
    37    21    22    1
    38    21    46    1
    39    22    23    1
    40    22    47    1
    41    22    48    1
    42    23    24    1
    43    23    25    1
    44    23    27    1
    45    25    26    1
    46    25    49    1
    47    25    50    1
    48    26    51    1
    49    27    32   ar
    50    27    28   ar
    51    28    29   ar
    52    28    52    1
    53    29    30   ar
    54    29    53    1
    55    30    31   ar
    56    30    54    1
    57    31    32   ar
    58    31    55    1
    59    32    56    1
@<TRIPOS>SUBSTRUCTURE
     1 ZINC000489986384        1 TEMP              0 ****  ****    0 ROOT


##########                                Name:    ZINC000245764166
##########                DOCK_Rotatable_Bonds:                   8
##########                         Heavy_Atoms:                  26
##########                    Molecular_Weight:             359.512
##########                DOCK_Rotatable_Bonds:                   8
##########                       Formal_Charge:          -0.0100008
##########                     HBond_Acceptors:                   5
##########                        HBond_Donors:                   2
##########                         Heavy_Atoms:                  26
##########                          Grid_Score:          -33.830490
##########                     Grid_vdw_energy:          -33.987049
##########                      Grid_es_energy:            0.156561
##########           Internal_energy_repulsive:           38.996674

@<TRIPOS>MOLECULE
ZINC000245764166
 59 61 1 0 0
SMALL
USER_CHARGES


@<TRIPOS>ATOM
      1 C1          1.6695    1.3306   46.3578 C.3     1  ZINC000245764166    0.0200
      2 N2          0.3266    1.9229   46.4194 N.3     1  ZINC000245764166   -0.5300
      3 C3         -0.0290    2.5552   45.1420 C.3     1  ZINC000245764166    0.0600
      4 C4         -0.0893    1.5060   44.0618 C.ar    1  ZINC000245764166   -0.0800
      5 C5         -1.2894    0.8872   43.7655 C.ar    1  ZINC000245764166   -0.1000
      6 C6         -1.3447   -0.0752   42.7748 C.ar    1  ZINC000245764166   -0.1200
      7 C7         -0.2000   -0.4184   42.0799 C.ar    1  ZINC000245764166   -0.1200
      8 C8          0.9999    0.2011   42.3756 C.ar    1  ZINC000245764166   -0.1200
      9 C9          1.0543    1.1665   43.3634 C.ar    1  ZINC000245764166   -0.1200
     10 C10        -0.6740    0.9194   46.8066 C.3     1  ZINC000245764166    0.0500
     11 C11        -1.1322    1.1839   48.2423 C.3     1  ZINC000245764166    0.1900
     12 C12        -0.7622   -0.0105   49.1240 C.3     1  ZINC000245764166   -0.1600
     13 C13        -0.4440    2.4427   48.7737 C.3     1  ZINC000245764166   -0.1500
     14 N14        -2.5845    1.3753   48.2639 N.am    1  ZINC000245764166   -0.7400
     15 C15        -3.2126    1.6369   49.4273 C.2     1  ZINC000245764166    0.7000
     16 O16        -2.5741    1.7127   50.4592 O.2     1  ZINC000245764166   -0.5800
     17 N17        -4.5485    1.8146   49.4469 N.am    1  ZINC000245764166   -0.7500
     18 C18        -5.2313    2.0973   50.7118 C.3     1  ZINC000245764166    0.1800
     19 H19        -4.5057    2.0710   51.5248 H       1  ZINC000245764166    0.0900
     20 C20        -6.2981    1.0328   50.9557 C.3     1  ZINC000245764166   -0.1300
     21 C21        -6.9618    1.3070   52.3097 C.3     1  ZINC000245764166   -0.1100
     22 C22        -7.6678    2.6606   52.2343 C.3     1  ZINC000245764166   -0.1100
     23 C23        -6.6967    3.7705   51.9069 C.3     1  ZINC000245764166    0.0900
     24 H24        -7.2536    4.6938   51.7468 H       1  ZINC000245764166    0.0600
     25 O25        -5.7232    3.9872   52.9372 O.3     1  ZINC000245764166   -0.3600
     26 C26        -4.6819    4.7878   52.3435 C.3     1  ZINC000245764166    0.0500
     27 C27        -4.6998    4.5120   50.8263 C.3     1  ZINC000245764166   -0.1500
     28 C28        -5.8612    3.4901   50.6438 C.3     1  ZINC000245764166   -0.1300
     29 H29        -6.4248    3.6556   49.7256 H       1  ZINC000245764166    0.1000
     30 H30         2.3933    2.0988   46.0857 H       1  ZINC000245764166    0.0800
     31 H31         1.9287    0.9159   47.3319 H       1  ZINC000245764166    0.0700
     32 H32         1.6830    0.5376   45.6100 H       1  ZINC000245764166    0.0200
     33 H33        -1.0019    3.0380   45.2340 H       1  ZINC000245764166    0.0400
     34 H34         0.7234    3.3002   44.8834 H       1  ZINC000245764166    0.1100
     35 H35        -2.1836    1.1554   44.3084 H       1  ZINC000245764166    0.1200
     36 H36        -2.2821   -0.5592   42.5438 H       1  ZINC000245764166    0.1200
     37 H37        -0.2431   -1.1707   41.3063 H       1  ZINC000245764166    0.1200
     38 H38         1.8943   -0.0673   41.8329 H       1  ZINC000245764166    0.1200
     39 H39         1.9918    1.6505   43.5944 H       1  ZINC000245764166    0.1200
     40 H40        -1.5300    0.9817   46.1347 H       1  ZINC000245764166    0.0400
     41 H41        -0.2340   -0.0758   46.7433 H       1  ZINC000245764166    0.1000
     42 H42         0.3184   -0.1529   49.1079 H       1  ZINC000245764166    0.0700
     43 H43        -1.0887    0.1778   50.1467 H       1  ZINC000245764166    0.0800
     44 H44        -1.2525   -0.9074   48.7454 H       1  ZINC000245764166    0.0500
     45 H45        -0.8026    3.3127   48.2234 H       1  ZINC000245764166    0.0600
     46 H46        -0.6734    2.5627   49.8325 H       1  ZINC000245764166    0.0800
     47 H47         0.6342    2.3496   48.6438 H       1  ZINC000245764166    0.0600
     48 H48        -3.0942    1.3137   47.4408 H       1  ZINC000245764166    0.3900
     49 H49        -5.0577    1.7554   48.6235 H       1  ZINC000245764166    0.3900
     50 H50        -7.0472    1.0777   50.1653 H       1  ZINC000245764166    0.0600
     51 H51        -5.8345    0.0465   50.9686 H       1  ZINC000245764166    0.0700
     52 H52        -7.6894    0.5250   52.5271 H       1  ZINC000245764166    0.0700
     53 H53        -6.2035    1.3314   53.0923 H       1  ZINC000245764166    0.0700
     54 H54        -8.4361    2.6197   51.4622 H       1  ZINC000245764166    0.0800
     55 H55        -8.1393    2.8710   53.1943 H       1  ZINC000245764166    0.0700
     56 H56        -4.8747    5.8442   52.5304 H       1  ZINC000245764166    0.0600
     57 H57        -3.7148    4.5062   52.7601 H       1  ZINC000245764166    0.0800
     58 H58        -4.9068    5.4284   50.2735 H       1  ZINC000245764166    0.0800
     59 H59        -3.7534    4.0765   50.5056 H       1  ZINC000245764166    0.0800
@<TRIPOS>BOND
     1     1     2    1
     2     1    30    1
     3     1    31    1
     4     1    32    1
     5     2     3    1
     6     2    10    1
     7     3     4    1
     8     3    33    1
     9     3    34    1
    10     4     9   ar
    11     4     5   ar
    12     5     6   ar
    13     5    35    1
    14     6     7   ar
    15     6    36    1
    16     7     8   ar
    17     7    37    1
    18     8     9   ar
    19     8    38    1
    20     9    39    1
    21    10    11    1
    22    10    40    1
    23    10    41    1
    24    11    12    1
    25    11    13    1
    26    11    14    1
    27    12    42    1
    28    12    43    1
    29    12    44    1
    30    13    45    1
    31    13    46    1
    32    13    47    1
    33    14    15   am
    34    14    48    1
    35    15    16    2
    36    15    17   am
    37    17    18    1
    38    17    49    1
    39    18    19    1
    40    18    28    1
    41    18    20    1
    42    20    21    1
    43    20    50    1
    44    20    51    1
    45    21    22    1
    46    21    52    1
    47    21    53    1
    48    22    23    1
    49    22    54    1
    50    22    55    1
    51    23    24    1
    52    23    28    1
    53    23    25    1
    54    25    26    1
    55    26    27    1
    56    26    56    1
    57    26    57    1
    58    27    28    1
    59    27    58    1
    60    27    59    1
    61    28    29    1
@<TRIPOS>SUBSTRUCTURE
     1 ZINC000245764166        1 TEMP              0 ****  ****    0 ROOT


##########                                Name:    ZINC000279593480
##########                DOCK_Rotatable_Bonds:                   9
##########                         Heavy_Atoms:                  23
##########                    Molecular_Weight:              340.85
##########                DOCK_Rotatable_Bonds:                   9
##########                       Formal_Charge:          -0.0500002
##########                     HBond_Acceptors:                   6
##########                        HBond_Donors:                   3
##########                         Heavy_Atoms:                  23
##########                          Grid_Score:          -33.802219
##########                     Grid_vdw_energy:          -31.606945
##########                      Grid_es_energy:           -2.195274
##########           Internal_energy_repulsive:           13.928179

@<TRIPOS>MOLECULE
ZINC000279593480
 48 49 1 0 0
SMALL
USER_CHARGES


@<TRIPOS>ATOM
      1 C1         -8.0643    4.1639   50.4197 C.3     1  ZINC000279593480   -0.1400
      2 C2         -6.6226    4.3730   50.8874 C.3     1  ZINC000279593480   -0.1400
      3 C3         -5.8844    3.0330   50.8794 C.3     1  ZINC000279593480    0.1700
      4 H4         -6.4502    2.3099   50.2921 H       1  ZINC000279593480    0.0900
      5 C5         -5.7388    2.5225   52.3144 C.3     1  ZINC000279593480   -0.0900
      6 C6         -6.8892    1.6051   52.6403 C.ar    1  ZINC000279593480   -0.0800
      7 C7         -6.9475    0.3435   52.0781 C.ar    1  ZINC000279593480   -0.1000
      8 C8         -8.0023   -0.4984   52.3767 C.ar    1  ZINC000279593480   -0.1100
      9 C9         -8.9999   -0.0782   53.2383 C.ar    1  ZINC000279593480   -0.0400
     10 Cl10      -10.3247   -1.1351   53.6142 Cl      1  ZINC000279593480   -0.0700
     11 C11        -8.9409    1.1846   53.8006 C.ar    1  ZINC000279593480   -0.1100
     12 C12        -7.8828    2.0234   53.5057 C.ar    1  ZINC000279593480   -0.1000
     13 N13        -4.5562    3.2106   50.2873 N.am    1  ZINC000279593480   -0.7400
     14 C14        -3.8555    2.1377   49.8697 C.2     1  ZINC000279593480    0.7100
     15 O15        -4.3265    1.0224   49.9831 O.2     1  ZINC000279593480   -0.5800
     16 N16        -2.6330    2.3009   49.3264 N.am    1  ZINC000279593480   -0.7500
     17 C17        -1.8722    1.1347   48.8710 C.3     1  ZINC000279593480    0.1200
     18 C18        -0.7864    1.5850   47.8915 C.3     1  ZINC000279593480    0.0900
     19 O19        -0.8714    2.9933   47.6644 O.3     1  ZINC000279593480   -0.5400
     20 C20         0.6135    1.2026   48.4220 C.3     1  ZINC000279593480   -0.1900
     21 C21         1.1739    0.2454   47.3468 C.3     1  ZINC000279593480    0.0500
     22 O22         0.4572    0.5860   46.1400 O.3     1  ZINC000279593480   -0.3600
     23 C23        -0.9063    0.8135   46.5585 C.3     1  ZINC000279593480    0.0900
     24 H24        -1.4188   -0.1358   46.7143 H       1  ZINC000279593480    0.0800
     25 C25        -1.6493    1.6546   45.5186 C.3     1  ZINC000279593480   -0.1400
     26 H26        -8.5669    3.4682   51.0916 H       1  ZINC000279593480    0.0600
     27 H27        -8.5902    5.1186   50.4253 H       1  ZINC000279593480    0.0400
     28 H28        -8.0628    3.7558   49.4089 H       1  ZINC000279593480    0.0600
     29 H29        -6.1200    5.0687   50.2154 H       1  ZINC000279593480    0.0600
     30 H30        -6.6241    4.7811   51.8981 H       1  ZINC000279593480    0.0700
     31 H31        -4.8002    1.9772   52.4126 H       1  ZINC000279593480    0.0800
     32 H32        -5.7418    3.3676   53.0027 H       1  ZINC000279593480    0.0900
     33 H33        -6.1688    0.0157   51.4053 H       1  ZINC000279593480    0.1300
     34 H34        -8.0479   -1.4839   51.9372 H       1  ZINC000279593480    0.1300
     35 H35        -9.7195    1.5133   54.4730 H       1  ZINC000279593480    0.1300
     36 H36        -7.8365    3.0090   53.9448 H       1  ZINC000279593480    0.1300
     37 H37        -4.1810    4.1004   50.1958 H       1  ZINC000279593480    0.3900
     38 H38        -2.2568    3.1905   49.2371 H       1  ZINC000279593480    0.3900
     39 H39        -1.4086    0.6460   49.7279 H       1  ZINC000279593480    0.0800
     40 H40        -2.5433    0.4350   48.3728 H       1  ZINC000279593480    0.0800
     41 H41        -1.3572    3.4734   48.3489 H       1  ZINC000279593480    0.3700
     42 H42         1.2432    2.0879   48.5107 H       1  ZINC000279593480    0.0900
     43 H43         0.5321    0.6929   49.3820 H       1  ZINC000279593480    0.0900
     44 H44         2.2430    0.4098   47.2123 H       1  ZINC000279593480    0.1000
     45 H45         0.9803   -0.7909   47.6234 H       1  ZINC000279593480    0.0600
     46 H46        -1.6763    1.1187   44.5698 H       1  ZINC000279593480    0.0600
     47 H47        -2.6676    1.8390   45.8609 H       1  ZINC000279593480    0.0700
     48 H48        -1.1334    2.6053   45.3843 H       1  ZINC000279593480    0.0700
@<TRIPOS>BOND
     1     1     2    1
     2     1    26    1
     3     1    27    1
     4     1    28    1
     5     2     3    1
     6     2    29    1
     7     2    30    1
     8     3     4    1
     9     3     5    1
    10     3    13    1
    11     5     6    1
    12     5    31    1
    13     5    32    1
    14     6    12   ar
    15     6     7   ar
    16     7     8   ar
    17     7    33    1
    18     8     9   ar
    19     8    34    1
    20     9    10    1
    21     9    11   ar
    22    11    12   ar
    23    11    35    1
    24    12    36    1
    25    13    14   am
    26    13    37    1
    27    14    15    2
    28    14    16   am
    29    16    17    1
    30    16    38    1
    31    17    18    1
    32    17    39    1
    33    17    40    1
    34    18    23    1
    35    18    19    1
    36    18    20    1
    37    19    41    1
    38    20    21    1
    39    20    42    1
    40    20    43    1
    41    21    22    1
    42    21    44    1
    43    21    45    1
    44    22    23    1
    45    23    24    1
    46    23    25    1
    47    25    46    1
    48    25    47    1
    49    25    48    1
@<TRIPOS>SUBSTRUCTURE
     1 ZINC000279593480        1 TEMP              0 ****  ****    0 ROOT


##########                                Name:    ZINC000444811358
##########                DOCK_Rotatable_Bonds:                  11
##########                         Heavy_Atoms:                  27
##########                    Molecular_Weight:             374.455
##########                DOCK_Rotatable_Bonds:                  11
##########                       Formal_Charge:          0.00999966
##########                     HBond_Acceptors:                   6
##########                        HBond_Donors:                   2
##########                         Heavy_Atoms:                  27
##########                          Grid_Score:          -33.788483
##########                     Grid_vdw_energy:          -32.427429
##########                      Grid_es_energy:           -1.361054
##########           Internal_energy_repulsive:           19.505037

@<TRIPOS>MOLECULE
ZINC000444811358
 54 55 1 0 0
SMALL
USER_CHARGES


@<TRIPOS>ATOM
      1 C1          2.5546    0.4300   47.9013 C.3     1  ZINC000444811358   -0.1100
      2 C2          1.1604    0.6261   48.4386 C.ar    1  ZINC000444811358   -0.1300
      3 C3          0.3040   -0.4536   48.5452 C.ar    1  ZINC000444811358   -0.0700
      4 C4         -0.9750   -0.2774   49.0369 C.ar    1  ZINC000444811358   -0.1500
      5 C5         -1.4012    0.9859   49.4251 C.ar    1  ZINC000444811358    0.1700
      6 N6         -2.6960    1.1662   49.9237 N.am    1  ZINC000444811358   -0.6800
      7 C7         -3.6121    1.8335   49.1943 C.2     1  ZINC000444811358    0.5200
      8 O8         -3.3141    2.2778   48.1058 O.2     1  ZINC000444811358   -0.5000
      9 C9         -5.0068    2.0276   49.7314 C.3     1  ZINC000444811358    0.0200
     10 N10        -4.9416    2.7263   51.0219 N.3     1  ZINC000444811358   -0.5000
     11 C11        -4.6003    4.1431   50.8369 C.3     1  ZINC000444811358    0.0200
     12 C12        -3.2847    4.4488   51.5559 C.3     1  ZINC000444811358    0.1100
     13 H13        -2.4930    3.8209   51.1474 H       1  ZINC000444811358    0.1200
     14 O14        -2.9472    5.8244   51.3669 O.3     1  ZINC000444811358   -0.5400
     15 C15        -3.4422    4.1631   53.0508 C.3     1  ZINC000444811358    0.0300
     16 O16        -2.1987    4.3990   53.7143 O.3     1  ZINC000444811358   -0.3000
     17 C17        -2.1681    4.1962   55.0577 C.ar    1  ZINC000444811358    0.1300
     18 C18        -0.9955    4.4130   55.7667 C.ar    1  ZINC000444811358   -0.2100
     19 C19        -0.9672    4.2067   57.1323 C.ar    1  ZINC000444811358   -0.0800
     20 C20        -2.1061    3.7840   57.7925 C.ar    1  ZINC000444811358   -0.1600
     21 C21        -3.2759    3.5668   57.0883 C.ar    1  ZINC000444811358   -0.0800
     22 C22        -3.3111    3.7777   55.7234 C.ar    1  ZINC000444811358   -0.1500
     23 C23        -6.2013    2.5808   51.7635 C.3     1  ZINC000444811358    0.0700
     24 C24        -7.3807    2.7925   50.8120 C.3     1  ZINC000444811358   -0.1400
     25 C25        -6.2786    1.1769   52.3670 C.3     1  ZINC000444811358   -0.1900
     26 C26        -0.5400    2.0700   49.3180 C.ar    1  ZINC000444811358   -0.1500
     27 C27         0.7413    1.8871   48.8300 C.ar    1  ZINC000444811358    0.1200
     28 F28         1.5805    2.9405   48.7251 F       1  ZINC000444811358   -0.1300
     29 H29         3.2321    0.2007   48.7238 H       1  ZINC000444811358    0.0700
     30 H30         2.5567   -0.3944   47.1883 H       1  ZINC000444811358    0.0700
     31 H31         2.8837    1.3420   47.4031 H       1  ZINC000444811358    0.0700
     32 H32         0.6351   -1.4363   48.2434 H       1  ZINC000444811358    0.1400
     33 H33        -1.6432   -1.1218   49.1190 H       1  ZINC000444811358    0.1300
     34 H34        -2.9344    0.8109   50.7942 H       1  ZINC000444811358    0.4100
     35 H35        -5.5884    2.6211   49.0260 H       1  ZINC000444811358    0.1300
     36 H36        -5.4821    1.0563   49.8676 H       1  ZINC000444811358    0.0700
     37 H37        -4.4908    4.3545   49.7733 H       1  ZINC000444811358    0.0500
     38 H38        -5.3938    4.7651   51.2513 H       1  ZINC000444811358    0.1000
     39 H39        -2.8856    6.0904   50.4392 H       1  ZINC000444811358    0.3700
     40 H40        -4.2066    4.8188   53.4675 H       1  ZINC000444811358    0.0600
     41 H41        -3.7383    3.1237   53.1928 H       1  ZINC000444811358    0.0700
     42 H42        -0.1054    4.7426   55.2512 H       1  ZINC000444811358    0.1300
     43 H43        -0.0546    4.3753   57.6847 H       1  ZINC000444811358    0.1200
     44 H44        -2.0818    3.6229   58.8602 H       1  ZINC000444811358    0.1200
     45 H45        -4.1642    3.2364   57.6062 H       1  ZINC000444811358    0.1300
     46 H46        -4.2251    3.6079   55.1737 H       1  ZINC000444811358    0.1300
     47 H47        -6.2407    3.3221   52.5617 H       1  ZINC000444811358    0.0900
     48 H48        -7.4182    1.9748   50.0924 H       1  ZINC000444811358    0.0500
     49 H49        -8.3086    2.8167   51.3834 H       1  ZINC000444811358    0.0600
     50 H50        -7.2553    3.7370   50.2826 H       1  ZINC000444811358    0.0700
     51 H51        -5.4385    1.0261   53.0448 H       1  ZINC000444811358    0.0500
     52 H52        -7.2133    1.0690   52.9172 H       1  ZINC000444811358    0.0700
     53 H53        -6.2392    0.4357   51.5689 H       1  ZINC000444811358    0.0600
     54 H54        -0.8689    3.0537   49.6188 H       1  ZINC000444811358    0.1500
@<TRIPOS>BOND
     1     1     2    1
     2     1    29    1
     3     1    30    1
     4     1    31    1
     5     2    27   ar
     6     2     3   ar
     7     3     4   ar
     8     3    32    1
     9     4     5   ar
    10     4    33    1
    11     5     6    1
    12     5    26   ar
    13     6     7   am
    14     6    34    1
    15     7     8    2
    16     7     9    1
    17     9    10    1
    18     9    35    1
    19     9    36    1
    20    10    11    1
    21    10    23    1
    22    11    12    1
    23    11    37    1
    24    11    38    1
    25    12    13    1
    26    12    14    1
    27    12    15    1
    28    14    39    1
    29    15    16    1
    30    15    40    1
    31    15    41    1
    32    16    17    1
    33    17    22   ar
    34    17    18   ar
    35    18    19   ar
    36    18    42    1
    37    19    20   ar
    38    19    43    1
    39    20    21   ar
    40    20    44    1
    41    21    22   ar
    42    21    45    1
    43    22    46    1
    44    23    24    1
    45    23    25    1
    46    23    47    1
    47    24    48    1
    48    24    49    1
    49    24    50    1
    50    25    51    1
    51    25    52    1
    52    25    53    1
    53    26    27   ar
    54    26    54    1
    55    27    28    1
@<TRIPOS>SUBSTRUCTURE
     1 ZINC000444811358        1 TEMP              0 ****  ****    0 ROOT


##########                                Name:    ZINC000000992968
##########                DOCK_Rotatable_Bonds:                   8
##########                         Heavy_Atoms:                  27
##########                    Molecular_Weight:             384.772
##########                DOCK_Rotatable_Bonds:                   8
##########                       Formal_Charge:           0.0199999
##########                     HBond_Acceptors:                   7
##########                        HBond_Donors:                   0
##########                         Heavy_Atoms:                  27
##########                          Grid_Score:          -33.767143
##########                     Grid_vdw_energy:          -34.647961
##########                      Grid_es_energy:            0.880817
##########           Internal_energy_repulsive:            5.372930

@<TRIPOS>MOLECULE
ZINC000000992968
 40 42 1 0 0
SMALL
USER_CHARGES


@<TRIPOS>ATOM
      1 O1         -9.7159   -1.2383   53.0647 O.2     1  ZINC000000992968   -0.4600
      2 C2         -9.3800   -0.0925   53.2962 C.2     1  ZINC000000992968    0.5600
      3 O3         -8.1592    0.1617   53.8118 O.3     1  ZINC000000992968   -0.2900
      4 C4         -7.2402    0.7564   53.0098 C.ar    1  ZINC000000992968    0.1200
      5 C5         -6.9480    0.2081   51.7657 C.ar    1  ZINC000000992968   -0.1300
      6 C6         -6.0166    0.8070   50.9488 C.ar    1  ZINC000000992968   -0.0400
      7 C7         -5.3628    1.9707   51.3720 C.ar    1  ZINC000000992968   -0.1600
      8 C8         -4.3680    2.6145   50.5038 C.2     1  ZINC000000992968    0.4000
      9 O9         -4.3730    3.8194   50.3654 O.2     1  ZINC000000992968   -0.4200
     10 C10        -3.3412    1.7777   49.7850 C.3     1  ZINC000000992968    0.0200
     11 O11        -2.0506    2.4406   49.8424 O.3     1  ZINC000000992968   -0.3300
     12 C12        -1.0140    1.8130   49.2536 C.2     1  ZINC000000992968    0.5100
     13 O13         0.0263    1.6574   49.8613 O.2     1  ZINC000000992968   -0.5000
     14 C14        -1.1423    1.3145   47.8697 C.ar    1  ZINC000000992968   -0.1300
     15 C15        -1.3913   -0.0391   47.6322 C.ar    1  ZINC000000992968   -0.0500
     16 C16        -1.5106   -0.4984   46.3376 C.ar    1  ZINC000000992968   -0.1200
     17 C17        -1.3837    0.3796   45.2737 C.ar    1  ZINC000000992968    0.0000
     18 Cl18       -1.5347   -0.2064   43.6466 Cl      1  ZINC000000992968   -0.0500
     19 C19        -1.1372    1.7234   45.5028 C.ar    1  ZINC000000992968   -0.1200
     20 C20        -1.0211    2.1958   46.7929 C.ar    1  ZINC000000992968   -0.0400
     21 C21        -5.6610    2.5189   52.6254 C.ar    1  ZINC000000992968   -0.0600
     22 C22        -6.5980    1.9151   53.4325 C.ar    1  ZINC000000992968   -0.1200
     23 C23       -10.2983    1.0118   53.0097 C.2     1  ZINC000000992968   -0.0700
     24 C24       -10.0782    2.3318   53.2866 C.2     1  ZINC000000992968   -0.0900
     25 C25       -11.2120    3.0308   52.8456 C.2     1  ZINC000000992968   -0.2300
     26 C26       -12.0642    2.1194   52.3254 C.2     1  ZINC000000992968    0.0200
     27 O27       -11.5077    0.9051   52.4209 O.3     1  ZINC000000992968   -0.1500
     28 H28        -7.4528   -0.6895   51.4401 H       1  ZINC000000992968    0.1400
     29 H29        -5.7899    0.3801   49.9829 H       1  ZINC000000992968    0.1500
     30 H30        -3.2694    0.8008   50.2630 H       1  ZINC000000992968    0.1100
     31 H31        -3.6391    1.6520   48.7441 H       1  ZINC000000992968    0.1100
     32 H32        -1.4897   -0.7247   48.4609 H       1  ZINC000000992968    0.1500
     33 H33        -1.7031   -1.5448   46.1526 H       1  ZINC000000992968    0.1500
     34 H34        -1.0396    2.4030   44.6691 H       1  ZINC000000992968    0.1500
     35 H35        -0.8293    3.2437   46.9701 H       1  ZINC000000992968    0.1500
     36 H36        -5.1593    3.4162   52.9566 H       1  ZINC000000992968    0.1400
     37 H37        -6.8289    2.3373   54.3994 H       1  ZINC000000992968    0.1400
     38 H38        -9.2016    2.7550   53.7543 H       1  ZINC000000992968    0.1700
     39 H39       -11.3736    4.0966   52.9098 H       1  ZINC000000992968    0.1700
     40 H40       -13.0327    2.3356   51.8993 H       1  ZINC000000992968    0.2200
@<TRIPOS>BOND
     1     1     2    2
     2     2     3    1
     3     2    23    1
     4     3     4    1
     5     4    22   ar
     6     4     5   ar
     7     5     6   ar
     8     5    28    1
     9     6     7   ar
    10     6    29    1
    11     7     8    1
    12     7    21   ar
    13     8     9    2
    14     8    10    1
    15    10    11    1
    16    10    30    1
    17    10    31    1
    18    11    12    1
    19    12    13    2
    20    12    14    1
    21    14    20   ar
    22    14    15   ar
    23    15    16   ar
    24    15    32    1
    25    16    17   ar
    26    16    33    1
    27    17    18    1
    28    17    19   ar
    29    19    20   ar
    30    19    34    1
    31    20    35    1
    32    21    22   ar
    33    21    36    1
    34    22    37    1
    35    23    27    1
    36    23    24    2
    37    24    25    1
    38    24    38    1
    39    25    26    2
    40    25    39    1
    41    26    27    1
    42    26    40    1
@<TRIPOS>SUBSTRUCTURE
     1 ZINC000000992968        1 TEMP              0 ****  ****    0 ROOT


##########                                Name:    ZINC000451500596
##########                DOCK_Rotatable_Bonds:                   7
##########                         Heavy_Atoms:                  25
##########                    Molecular_Weight:             365.497
##########                DOCK_Rotatable_Bonds:                   7
##########                       Formal_Charge:           0.0400004
##########                     HBond_Acceptors:                   7
##########                        HBond_Donors:                   2
##########                         Heavy_Atoms:                  25
##########                          Grid_Score:          -33.764397
##########                     Grid_vdw_energy:          -31.220694
##########                      Grid_es_energy:           -2.543705
##########           Internal_energy_repulsive:           11.247120

@<TRIPOS>MOLECULE
ZINC000451500596
 52 54 1 0 0
SMALL
USER_CHARGES


@<TRIPOS>ATOM
      1 C1         -8.5507    0.2988   53.0185 C.3     1  ZINC000451500596   -0.6700
      2 S2         -8.0132    1.6643   54.0849 S.o2    1  ZINC000451500596    2.6100
      3 O3         -8.6905    2.8643   53.7377 O.2     1  ZINC000451500596   -0.9500
      4 O4         -7.9270    1.2365   55.4372 O.2     1  ZINC000451500596   -0.9600
      5 N5         -6.4414    1.9398   53.6427 N.am    1  ZINC000451500596   -1.1200
      6 C6         -6.1241    2.3187   52.2636 C.3     1  ZINC000451500596    0.1200
      7 C7         -4.8384    3.1480   52.2454 C.3     1  ZINC000451500596   -0.1000
      8 H8         -3.9755    2.5022   52.4075 H       1  ZINC000451500596    0.0900
      9 C9         -4.8962    4.2365   53.3371 C.3     1  ZINC000451500596   -0.1200
     10 C10        -4.2008    5.4602   52.6905 C.3     1  ZINC000451500596   -0.1300
     11 C11        -4.6840    5.3907   51.2205 C.3     1  ZINC000451500596   -0.1300
     12 C12        -4.7028    3.8808   50.8992 C.3     1  ZINC000451500596    0.1400
     13 H13        -5.5532    3.6460   50.2590 H       1  ZINC000451500596    0.1000
     14 N14        -3.4546    3.4930   50.2375 N.am    1  ZINC000451500596   -0.7200
     15 C15        -3.4169    2.3908   49.4628 C.2     1  ZINC000451500596    0.5300
     16 O16        -4.4160    1.7193   49.3146 O.2     1  ZINC000451500596   -0.5300
     17 C17        -2.1335    1.9928   48.7807 C.3     1  ZINC000451500596   -0.1300
     18 H18        -1.3674    2.7536   48.9297 H       1  ZINC000451500596    0.1000
     19 C19        -1.6440    0.6134   49.2950 C.3     1  ZINC000451500596   -0.1200
     20 C20        -0.8139    0.1065   48.0893 C.3     1  ZINC000451500596    0.0500
     21 N21        -1.5572    0.5690   46.8980 N.3     1  ZINC000451500596   -0.4900
     22 C22        -0.6842    0.8834   45.8540 C.ar    1  ZINC000451500596    0.0800
     23 C23        -0.8958    0.3556   44.5867 C.ar    1  ZINC000451500596   -0.0900
     24 C24        -0.0308    0.6688   43.5566 C.ar    1  ZINC000451500596   -0.1100
     25 C25         1.0452    1.5066   43.7859 C.ar    1  ZINC000451500596   -0.1200
     26 C26         1.2589    2.0338   45.0463 C.ar    1  ZINC000451500596   -0.1100
     27 C27         0.3946    1.7292   46.0795 C.ar    1  ZINC000451500596   -0.1500
     28 C28        -2.3696    1.7436   47.2762 C.3     1  ZINC000451500596    0.0600
     29 H29        -8.4686    0.5995   51.9740 H       1  ZINC000451500596    0.1300
     30 H30        -7.9192   -0.5717   53.1968 H       1  ZINC000451500596    0.1300
     31 H31        -9.5872    0.0479   53.2439 H       1  ZINC000451500596    0.1300
     32 H32        -5.7307    1.8503   54.2968 H       1  ZINC000451500596    0.4200
     33 H33        -5.9853    1.4201   51.6625 H       1  ZINC000451500596    0.0700
     34 H34        -6.9428    2.9086   51.8514 H       1  ZINC000451500596    0.0900
     35 H35        -5.9308    4.4729   53.5857 H       1  ZINC000451500596    0.0800
     36 H36        -4.3533    3.9147   54.2257 H       1  ZINC000451500596    0.0700
     37 H37        -4.5308    6.3858   53.1622 H       1  ZINC000451500596    0.0700
     38 H38        -3.1167    5.3623   52.7459 H       1  ZINC000451500596    0.0700
     39 H39        -5.6843    5.8135   51.1273 H       1  ZINC000451500596    0.0800
     40 H40        -3.9861    5.9112   50.5647 H       1  ZINC000451500596    0.0700
     41 H41        -2.6554    4.0294   50.3570 H       1  ZINC000451500596    0.4000
     42 H42        -1.0179    0.7263   50.1801 H       1  ZINC000451500596    0.0800
     43 H43        -2.4856   -0.0495   49.4959 H       1  ZINC000451500596    0.0800
     44 H44         0.1851    0.5423   48.1062 H       1  ZINC000451500596    0.0600
     45 H45        -0.7542   -0.9819   48.1005 H       1  ZINC000451500596    0.0900
     46 H46        -1.7357   -0.2993   44.4071 H       1  ZINC000451500596    0.1300
     47 H47        -0.1949    0.2588   42.5711 H       1  ZINC000451500596    0.1300
     48 H48         1.7205    1.7493   42.9788 H       1  ZINC000451500596    0.1200
     49 H49         2.1003    2.6877   45.2220 H       1  ZINC000451500596    0.1200
     50 H50         0.5618    2.1414   47.0636 H       1  ZINC000451500596    0.1200
     51 H51        -3.4249    1.5375   47.0980 H       1  ZINC000451500596    0.1000
     52 H52        -2.0564    2.6127   46.6978 H       1  ZINC000451500596    0.0700
@<TRIPOS>BOND
     1     1     2    1
     2     1    29    1
     3     1    30    1
     4     1    31    1
     5     2     3    2
     6     2     4    2
     7     2     5   am
     8     5     6    1
     9     5    32    1
    10     6     7    1
    11     6    33    1
    12     6    34    1
    13     7     8    1
    14     7    12    1
    15     7     9    1
    16     9    10    1
    17     9    35    1
    18     9    36    1
    19    10    11    1
    20    10    37    1
    21    10    38    1
    22    11    12    1
    23    11    39    1
    24    11    40    1
    25    12    13    1
    26    12    14    1
    27    14    15   am
    28    14    41    1
    29    15    16    2
    30    15    17    1
    31    17    18    1
    32    17    28    1
    33    17    19    1
    34    19    20    1
    35    19    42    1
    36    19    43    1
    37    20    21    1
    38    20    44    1
    39    20    45    1
    40    21    22    1
    41    21    28    1
    42    22    27   ar
    43    22    23   ar
    44    23    24   ar
    45    23    46    1
    46    24    25   ar
    47    24    47    1
    48    25    26   ar
    49    25    48    1
    50    26    27   ar
    51    26    49    1
    52    27    50    1
    53    28    51    1
    54    28    52    1
@<TRIPOS>SUBSTRUCTURE
     1 ZINC000451500596        1 TEMP              0 ****  ****    0 ROOT


##########                                Name:    ZINC000898967786
##########                DOCK_Rotatable_Bonds:                   5
##########                         Heavy_Atoms:                  25
##########                    Molecular_Weight:             356.448
##########                DOCK_Rotatable_Bonds:                   5
##########                       Formal_Charge:        -2.38419e-07
##########                     HBond_Acceptors:                   7
##########                        HBond_Donors:                   1
##########                         Heavy_Atoms:                  25
##########                          Grid_Score:          -33.754738
##########                     Grid_vdw_energy:          -33.160839
##########                      Grid_es_energy:           -0.593899
##########           Internal_energy_repulsive:            9.876173

@<TRIPOS>MOLECULE
ZINC000898967786
 45 48 1 0 0
SMALL
USER_CHARGES


@<TRIPOS>ATOM
      1 C1         -3.2627    4.5026   51.5535 C.3     1  ZINC000898967786   -0.0800
      2 C2         -4.3368    3.4908   51.8596 C.2     1  ZINC000898967786    0.0900
      3 C3         -4.8635    2.6102   50.9806 C.2     1  ZINC000898967786   -0.1000
      4 C4         -4.4878    2.4623   49.5288 C.3     1  ZINC000898967786    0.2200
      5 N5         -3.2488    1.6878   49.4214 N.am    1  ZINC000898967786   -0.7400
      6 C6         -2.6611    1.5197   48.2202 C.2     1  ZINC000898967786    0.7100
      7 O7         -3.1591    2.0109   47.2258 O.2     1  ZINC000898967786   -0.5800
      8 N8         -1.5213    0.8072   48.1215 N.am    1  ZINC000898967786   -0.6300
      9 C9         -0.9001    0.2035   49.3110 C.3     1  ZINC000898967786    0.0900
     10 C10         0.5809    0.5981   49.3361 C.3     1  ZINC000898967786    0.0500
     11 O11         1.1754    0.2758   48.0766 O.3     1  ZINC000898967786   -0.3700
     12 C12         0.6177    0.9848   46.9676 C.3     1  ZINC000898967786    0.1400
     13 H13         0.7059    2.0574   47.1396 H       1  ZINC000898967786    0.0700
     14 C14         1.3588    0.6141   45.7089 C.2     1  ZINC000898967786   -0.1100
     15 C15         2.6419    0.2492   45.7130 C.2     1  ZINC000898967786   -0.1800
     16 S16         3.1591   -0.1062   44.0699 S.3     1  ZINC000898967786    0.1100
     17 C17         1.5566    0.2719   43.4516 C.2     1  ZINC000898967786   -0.2100
     18 C18         0.7583    0.6210   44.4618 C.2     1  ZINC000898967786   -0.1300
     19 C19        -0.8646    0.6051   46.8203 C.3     1  ZINC000898967786    0.0900
     20 N20        -5.8016    1.8776   51.6555 N.pl3   1  ZINC000898967786   -0.3500
     21 C21        -6.6320    0.8641   51.2732 C.2     1  ZINC000898967786    0.0600
     22 C22        -7.4825    0.3020   52.1573 C.2     1  ZINC000898967786   -0.1400
     23 C23        -7.5244    0.7545   53.4865 C.2     1  ZINC000898967786   -0.1000
     24 C24        -6.7022    1.7638   53.8809 C.2     1  ZINC000898967786   -0.0800
     25 C25        -5.8192    2.3403   52.9458 C.2     1  ZINC000898967786    0.2400
     26 N26        -4.9224    3.3112   53.0458 N.2     1  ZINC000898967786   -0.4900
     27 H27        -2.2835    4.0581   51.7315 H       1  ZINC000898967786    0.0800
     28 H28        -3.3386    4.8087   50.5101 H       1  ZINC000898967786    0.0700
     29 H29        -3.3892    5.3728   52.1976 H       1  ZINC000898967786    0.0800
     30 H30        -5.2868    1.9451   48.9975 H       1  ZINC000898967786    0.1000
     31 H31        -4.3388    3.4487   49.0897 H       1  ZINC000898967786    0.0700
     32 H32        -2.8516    1.2959   50.2149 H       1  ZINC000898967786    0.4000
     33 H33        -1.3937    0.5723   50.2101 H       1  ZINC000898967786    0.1100
     34 H34        -0.9901   -0.8817   49.2612 H       1  ZINC000898967786    0.0800
     35 H35         0.6691    1.6695   49.5168 H       1  ZINC000898967786    0.0600
     36 H36         1.0901    0.0513   50.1297 H       1  ZINC000898967786    0.1100
     37 H37         3.2675    0.1825   46.5907 H       1  ZINC000898967786    0.1700
     38 H38         1.2625    0.2242   42.4136 H       1  ZINC000898967786    0.1700
     39 H39        -0.2758    0.8960   44.3166 H       1  ZINC000898967786    0.1400
     40 H40        -0.9479   -0.4392   46.5193 H       1  ZINC000898967786    0.0800
     41 H41        -1.3341    1.2422   46.0709 H       1  ZINC000898967786    0.0900
     42 H42        -6.6083    0.5090   50.2535 H       1  ZINC000898967786    0.1600
     43 H43        -8.1341   -0.4993   51.8415 H       1  ZINC000898967786    0.1500
     44 H44        -8.2065    0.3034   54.1919 H       1  ZINC000898967786    0.1500
     45 H45        -6.7260    2.1201   54.9002 H       1  ZINC000898967786    0.1500
@<TRIPOS>BOND
     1     1     2    1
     2     1    27    1
     3     1    28    1
     4     1    29    1
     5     2    26    1
     6     2     3    2
     7     3     4    1
     8     3    20    1
     9     4     5    1
    10     4    30    1
    11     4    31    1
    12     5     6   am
    13     5    32    1
    14     6     7    2
    15     6     8   am
    16     8    19    1
    17     8     9    1
    18     9    10    1
    19     9    33    1
    20     9    34    1
    21    10    11    1
    22    10    35    1
    23    10    36    1
    24    11    12    1
    25    12    13    1
    26    12    14    1
    27    12    19    1
    28    14    18    1
    29    14    15    2
    30    15    16    1
    31    15    37    1
    32    16    17    1
    33    17    18    2
    34    17    38    1
    35    18    39    1
    36    19    40    1
    37    19    41    1
    38    20    25    1
    39    20    21    1
    40    21    22    2
    41    21    42    1
    42    22    23    1
    43    22    43    1
    44    23    24    2
    45    23    44    1
    46    24    25    1
    47    24    45    1
    48    25    26    2
@<TRIPOS>SUBSTRUCTURE
     1 ZINC000898967786        1 TEMP              0 ****  ****    0 ROOT


##########                                Name:    ZINC000066361645
##########                DOCK_Rotatable_Bonds:                   8
##########                         Heavy_Atoms:                  27
##########                    Molecular_Weight:             392.519
##########                DOCK_Rotatable_Bonds:                   8
##########                       Formal_Charge:           0.0100004
##########                     HBond_Acceptors:                   7
##########                        HBond_Donors:                   2
##########                         Heavy_Atoms:                  27
##########                          Grid_Score:          -33.748108
##########                     Grid_vdw_energy:          -33.387012
##########                      Grid_es_energy:           -0.361096
##########           Internal_energy_repulsive:            8.300830

@<TRIPOS>MOLECULE
ZINC000066361645
 55 57 1 0 0
SMALL
USER_CHARGES


@<TRIPOS>ATOM
      1 C1        -10.3374   -0.6544   52.5671 C.3     1  ZINC000066361645   -0.1400
      2 S2         -8.5326   -0.7834   52.6945 S.3     1  ZINC000066361645   -0.1100
      3 C3         -8.1510    0.3003   54.0303 C.ar    1  ZINC000066361645   -0.1200
      4 C4         -8.8393    0.1937   55.2295 C.ar    1  ZINC000066361645   -0.1100
      5 C5         -8.5391    1.0459   56.2823 C.ar    1  ZINC000066361645    0.0500
      6 C6         -7.5464    2.0071   56.1364 C.ar    1  ZINC000066361645    0.0700
      7 C7         -6.8579    2.1166   54.9370 C.ar    1  ZINC000066361645   -0.1100
      8 C8         -7.1526    1.2630   53.8855 C.ar    1  ZINC000066361645    0.1800
      9 N9         -6.4550    1.3748   52.6733 N.am    1  ZINC000066361645   -0.6600
     10 C10        -6.8413    2.2823   51.7547 C.2     1  ZINC000066361645    0.5100
     11 O11        -7.7920    3.0025   51.9761 O.2     1  ZINC000066361645   -0.5000
     12 C12        -6.0921    2.4023   50.4527 C.3     1  ZINC000066361645   -0.1500
     13 C13        -4.7108    3.0066   50.7129 C.3     1  ZINC000066361645    0.1600
     14 H14        -4.2870    2.5687   51.6166 H       1  ZINC000066361645    0.1000
     15 C15        -4.8419    4.5204   50.8929 C.3     1  ZINC000066361645   -0.1600
     16 N16        -3.8322    2.7245   49.5751 N.am    1  ZINC000066361645   -0.7200
     17 C17        -2.5016    2.6173   49.7614 C.2     1  ZINC000066361645    0.5300
     18 O18        -2.0319    2.7531   50.8713 O.2     1  ZINC000066361645   -0.5400
     19 C19        -1.5977    2.3289   48.5906 C.3     1  ZINC000066361645   -0.1100
     20 C20        -0.3944    1.5114   49.0646 C.3     1  ZINC000066361645   -0.1100
     21 C21         0.5234    1.2186   47.8759 C.3     1  ZINC000066361645   -0.1200
     22 C22        -0.2480    0.4250   46.8194 C.3     1  ZINC000066361645   -0.1200
     23 C23        -1.4514    1.2425   46.3454 C.3     1  ZINC000066361645   -0.1200
     24 C24        -2.3691    1.5353   47.5341 C.3     1  ZINC000066361645   -0.1000
     25 O25        -7.2337    2.8469   57.1627 O.3     1  ZINC000066361645   -0.3000
     26 C26        -8.1935    2.9578   58.2191 C.3     1  ZINC000066361645    0.0200
     27 C27        -8.6477    1.5438   58.6059 C.3     1  ZINC000066361645    0.0200
     28 O28        -9.2285    0.9284   57.4511 O.3     1  ZINC000066361645   -0.3100
     29 H29       -10.7915   -0.9710   53.5061 H       1  ZINC000066361645    0.0900
     30 H30       -10.6142    0.3794   52.3601 H       1  ZINC000066361645    0.0900
     31 H31       -10.6913   -1.2941   51.7586 H       1  ZINC000066361645    0.1100
     32 H32        -9.6103   -0.5539   55.3440 H       1  ZINC000066361645    0.1400
     33 H33        -6.0883    2.8657   54.8237 H       1  ZINC000066361645    0.1600
     34 H34        -5.6949    0.7989   52.4962 H       1  ZINC000066361645    0.4100
     35 H35        -5.9783    1.4144   50.0065 H       1  ZINC000066361645    0.1000
     36 H36        -6.6481    3.0467   49.7717 H       1  ZINC000066361645    0.1200
     37 H37        -5.2658    4.9583   49.9892 H       1  ZINC000066361645    0.0600
     38 H38        -5.4957    4.7302   51.7394 H       1  ZINC000066361645    0.0700
     39 H39        -3.8579    4.9508   51.0782 H       1  ZINC000066361645    0.0700
     40 H40        -4.2080    2.6147   48.6876 H       1  ZINC000066361645    0.4000
     41 H41        -1.2516    3.2679   48.1587 H       1  ZINC000066361645    0.1000
     42 H42         0.1552    2.0767   49.8172 H       1  ZINC000066361645    0.0600
     43 H43        -0.7404    0.5723   49.4964 H       1  ZINC000066361645    0.0700
     44 H44         0.8694    2.1577   47.4441 H       1  ZINC000066361645    0.0600
     45 H45         1.3807    0.6362   48.2135 H       1  ZINC000066361645    0.0700
     46 H46         0.4058    0.2165   45.9726 H       1  ZINC000066361645    0.0600
     47 H47        -0.5941   -0.5140   47.2512 H       1  ZINC000066361645    0.0600
     48 H48        -1.1052    2.1816   45.9136 H       1  ZINC000066361645    0.0600
     49 H49        -2.0009    0.6772   45.5927 H       1  ZINC000066361645    0.0700
     50 H50        -2.7151    0.5962   47.9659 H       1  ZINC000066361645    0.0700
     51 H51        -3.2263    2.1177   47.1964 H       1  ZINC000066361645    0.0700
     52 H52        -7.7375    3.4459   59.0804 H       1  ZINC000066361645    0.1300
     53 H53        -9.0504    3.5387   57.8777 H       1  ZINC000066361645    0.0800
     54 H54        -7.7898    0.9609   58.9408 H       1  ZINC000066361645    0.0800
     55 H55        -9.3883    1.6009   59.4037 H       1  ZINC000066361645    0.1200
@<TRIPOS>BOND
     1     1     2    1
     2     1    29    1
     3     1    30    1
     4     1    31    1
     5     2     3    1
     6     3     8   ar
     7     3     4   ar
     8     4     5   ar
     9     4    32    1
    10     5    28    1
    11     5     6   ar
    12     6     7   ar
    13     6    25    1
    14     7     8   ar
    15     7    33    1
    16     8     9    1
    17     9    10   am
    18     9    34    1
    19    10    11    2
    20    10    12    1
    21    12    13    1
    22    12    35    1
    23    12    36    1
    24    13    14    1
    25    13    15    1
    26    13    16    1
    27    15    37    1
    28    15    38    1
    29    15    39    1
    30    16    17   am
    31    16    40    1
    32    17    18    2
    33    17    19    1
    34    19    24    1
    35    19    20    1
    36    19    41    1
    37    20    21    1
    38    20    42    1
    39    20    43    1
    40    21    22    1
    41    21    44    1
    42    21    45    1
    43    22    23    1
    44    22    46    1
    45    22    47    1
    46    23    24    1
    47    23    48    1
    48    23    49    1
    49    24    50    1
    50    24    51    1
    51    25    26    1
    52    26    27    1
    53    26    52    1
    54    26    53    1
    55    27    28    1
    56    27    54    1
    57    27    55    1
@<TRIPOS>SUBSTRUCTURE
     1 ZINC000066361645        1 TEMP              0 ****  ****    0 ROOT


##########                                Name:    ZINC001181473921
##########                DOCK_Rotatable_Bonds:                   9
##########                         Heavy_Atoms:                  24
##########                    Molecular_Weight:             357.431
##########                DOCK_Rotatable_Bonds:                   9
##########                       Formal_Charge:        -5.96046e-08
##########                     HBond_Acceptors:                   9
##########                        HBond_Donors:                   4
##########                         Heavy_Atoms:                  24
##########                          Grid_Score:          -33.736084
##########                     Grid_vdw_energy:          -32.960972
##########                      Grid_es_energy:           -0.775114
##########           Internal_energy_repulsive:           16.455500

@<TRIPOS>MOLECULE
ZINC001181473921
 47 48 1 0 0
SMALL
USER_CHARGES


@<TRIPOS>ATOM
      1 C1         -0.1099   -0.4116   49.1434 C.3     1  ZINC001181473921   -0.1300
      2 C2         -0.4096    0.2719   47.8342 C.2     1  ZINC001181473921    0.1900
      3 C3          0.4840    0.1987   46.8247 C.2     1  ZINC001181473921   -0.2400
      4 C4          0.2090    0.8353   45.5980 C.2     1  ZINC001181473921    0.2500
      5 O5          1.0952    0.7706   44.5756 O.3     1  ZINC001181473921   -0.4600
      6 C6         -0.9796    1.5267   45.4540 C.2     1  ZINC001181473921   -0.3700
      7 C7         -1.8746    1.5744   46.5292 C.2     1  ZINC001181473921    0.5300
      8 O8         -2.9288    2.1806   46.4178 O.2     1  ZINC001181473921   -0.5500
      9 N9         -1.5781    0.9490   47.6835 N.am    1  ZINC001181473921   -0.5000
     10 C10        -2.5258    1.0081   48.7992 C.3     1  ZINC001181473921    0.1000
     11 C11        -2.2417    2.2515   49.6441 C.3     1  ZINC001181473921   -0.1600
     12 C12        -3.5359    2.7877   50.1998 C.2     1  ZINC001181473921    0.5200
     13 O13        -3.7312    3.9842   50.2350 O.2     1  ZINC001181473921   -0.5300
     14 N14        -4.4762    1.9377   50.6577 N.am    1  ZINC001181473921   -0.7200
     15 C15        -5.7336    2.4591   51.1995 C.3     1  ZINC001181473921    0.1400
     16 H16        -6.2462    3.0734   50.4592 H       1  ZINC001181473921    0.1000
     17 C17        -5.4798    3.2629   52.4990 C.3     1  ZINC001181473921   -0.1300
     18 C18        -6.8280    3.2083   53.2469 C.3     1  ZINC001181473921   -0.1500
     19 C19        -7.5677    1.9623   52.7291 C.3     1  ZINC001181473921   -0.0800
     20 H20        -8.5093    2.2537   52.2635 H       1  ZINC001181473921    0.0900
     21 C21        -7.8321    0.9927   53.8827 C.3     1  ZINC001181473921   -0.6200
     22 S22        -8.9151   -0.3457   53.3116 S.o2    1  ZINC001181473921    2.6100
     23 N23       -10.2596    0.4289   52.7332 N.am    1  ZINC001181473921   -1.2500
     24 O24        -8.3597   -0.9837   52.1697 O.2     1  ZINC001181473921   -0.9600
     25 O25        -9.3944   -1.1039   54.4137 O.2     1  ZINC001181473921   -0.9600
     26 C26        -6.6455    1.3030   51.6800 C.3     1  ZINC001181473921   -0.1200
     27 H27        -0.9237   -1.0927   49.3923 H       1  ZINC001181473921    0.0900
     28 H28         0.8200   -0.9733   49.0555 H       1  ZINC001181473921    0.1000
     29 H29        -0.0093    0.3369   49.9293 H       1  ZINC001181473921    0.0900
     30 H30         1.4071   -0.3461   46.9570 H       1  ZINC001181473921    0.1500
     31 H31         0.7319    0.3916   43.7636 H       1  ZINC001181473921    0.4100
     32 H32        -1.2143    2.0237   44.5243 H       1  ZINC001181473921    0.1500
     33 H33        -3.5426    1.0579   48.4099 H       1  ZINC001181473921    0.1000
     34 H34        -2.4163    0.1165   49.4165 H       1  ZINC001181473921    0.1100
     35 H35        -1.5751    1.9883   50.4655 H       1  ZINC001181473921    0.1100
     36 H36        -1.7699    3.0129   49.0231 H       1  ZINC001181473921    0.1000
     37 H37        -4.3206    0.9808   50.6285 H       1  ZINC001181473921    0.4000
     38 H38        -4.6954    2.7923   53.0917 H       1  ZINC001181473921    0.0700
     39 H39        -5.2153    4.2939   52.2643 H       1  ZINC001181473921    0.0800
     40 H40        -6.6566    3.1218   54.3198 H       1  ZINC001181473921    0.0900
     41 H41        -7.4105    4.1044   53.0325 H       1  ZINC001181473921    0.0800
     42 H42        -6.8873    0.5731   54.2285 H       1  ZINC001181473921    0.1400
     43 H43        -8.3145    1.5258   54.7021 H       1  ZINC001181473921    0.1400
     44 H44       -10.9950   -0.0855   52.3652 H       1  ZINC001181473921    0.4100
     45 H45       -10.3118    1.3971   52.7624 H       1  ZINC001181473921    0.4200
     46 H46        -7.2326    0.9046   50.8526 H       1  ZINC001181473921    0.0800
     47 H47        -6.0477    0.5154   52.1388 H       1  ZINC001181473921    0.0800
@<TRIPOS>BOND
     1     1     2    1
     2     1    27    1
     3     1    28    1
     4     1    29    1
     5     2     9    1
     6     2     3    2
     7     3     4    1
     8     3    30    1
     9     4     5    1
    10     4     6    2
    11     5    31    1
    12     6     7    1
    13     6    32    1
    14     7     8    2
    15     7     9   am
    16     9    10    1
    17    10    11    1
    18    10    33    1
    19    10    34    1
    20    11    12    1
    21    11    35    1
    22    11    36    1
    23    12    13    2
    24    12    14   am
    25    14    15    1
    26    14    37    1
    27    15    16    1
    28    15    26    1
    29    15    17    1
    30    17    18    1
    31    17    38    1
    32    17    39    1
    33    18    19    1
    34    18    40    1
    35    18    41    1
    36    19    20    1
    37    19    21    1
    38    19    26    1
    39    21    22    1
    40    21    42    1
    41    21    43    1
    42    22    23   am
    43    22    24    2
    44    22    25    2
    45    23    44    1
    46    23    45    1
    47    26    46    1
    48    26    47    1
@<TRIPOS>SUBSTRUCTURE
     1 ZINC001181473921        1 TEMP              0 ****  ****    0 ROOT


##########                                Name:    ZINC001500042809
##########                DOCK_Rotatable_Bonds:                   9
##########                         Heavy_Atoms:                  24
##########                    Molecular_Weight:              346.45
##########                DOCK_Rotatable_Bonds:                   9
##########                       Formal_Charge:           0.0200001
##########                     HBond_Acceptors:                   6
##########                        HBond_Donors:                   2
##########                         Heavy_Atoms:                  24
##########                          Grid_Score:          -33.734604
##########                     Grid_vdw_energy:          -34.135399
##########                      Grid_es_energy:            0.400795
##########           Internal_energy_repulsive:           21.339220

@<TRIPOS>MOLECULE
ZINC001500042809
 46 47 1 0 0
SMALL
USER_CHARGES


@<TRIPOS>ATOM
      1 C1        -10.4624   -0.9859   53.7692 C.3     1  ZINC001500042809    0.0200
      2 O2         -9.0803   -0.8077   54.0853 O.3     1  ZINC001500042809   -0.3100
      3 C3         -8.3767    0.0541   53.3081 C.ar    1  ZINC001500042809    0.1600
      4 C4         -7.6939   -0.4175   52.1929 C.ar    1  ZINC001500042809   -0.1600
      5 C5         -6.9785    0.4537   51.4021 C.ar    1  ZINC001500042809   -0.0200
      6 C6         -6.9398    1.8134   51.7217 C.ar    1  ZINC001500042809   -0.1800
      7 C7         -6.1741    2.7506   50.8766 C.2     1  ZINC001500042809    0.5600
      8 O8         -6.4848    2.9121   49.7123 O.2     1  ZINC001500042809   -0.5300
      9 N9         -5.1306    3.4274   51.3958 N.am    1  ZINC001500042809   -0.7300
     10 C10        -4.3716    4.3589   50.5575 C.3     1  ZINC001500042809    0.1300
     11 C11        -2.8739    4.1512   50.7914 C.3     1  ZINC001500042809   -0.1200
     12 H12        -2.3082    4.7496   50.0772 H       1  ZINC001500042809    0.0900
     13 C13        -2.5155    4.5822   52.2149 C.3     1  ZINC001500042809   -0.1500
     14 C14        -2.5289    2.6724   50.6041 C.3     1  ZINC001500042809    0.1300
     15 N15        -2.4933    2.3566   49.1740 N.am    1  ZINC001500042809   -0.7300
     16 C16        -1.8744    1.2386   48.7459 C.2     1  ZINC001500042809    0.5900
     17 O17        -1.3437    0.4920   49.5473 O.2     1  ZINC001500042809   -0.5200
     18 C18        -1.8403    0.9217   47.3151 C.2     1  ZINC001500042809   -0.2800
     19 C19        -1.3404   -0.2270   46.7693 C.2     1  ZINC001500042809   -0.0100
     20 C20        -0.7458   -1.3432   47.5887 C.3     1  ZINC001500042809   -0.1100
     21 C21        -1.4345   -0.2632   45.3983 C.2     1  ZINC001500042809   -0.1500
     22 C22        -1.9917    0.8172   44.8388 C.2     1  ZINC001500042809   -0.2200
     23 S23        -2.4429    1.9555   46.0269 S.3     1  ZINC001500042809    0.1900
     24 C24        -7.6231    2.2826   52.8466 C.ar    1  ZINC001500042809   -0.0400
     25 C25        -8.3402    1.4058   53.6296 C.ar    1  ZINC001500042809   -0.2200
     26 H26       -10.9797   -0.0298   53.8496 H       1  ZINC001500042809    0.0600
     27 H27       -10.5564   -1.3655   52.7518 H       1  ZINC001500042809    0.0600
     28 H28       -10.9053   -1.6983   54.4653 H       1  ZINC001500042809    0.1000
     29 H29        -7.7243   -1.4685   51.9466 H       1  ZINC001500042809    0.1400
     30 H30        -6.4478    0.0864   50.5362 H       1  ZINC001500042809    0.1400
     31 H31        -4.8820    3.2977   52.3243 H       1  ZINC001500042809    0.4000
     32 H32        -4.6412    5.3829   50.8163 H       1  ZINC001500042809    0.0800
     33 H33        -4.6044    4.1760   49.5085 H       1  ZINC001500042809    0.0800
     34 H34        -2.7614    5.6357   52.3484 H       1  ZINC001500042809    0.0600
     35 H35        -3.0813    3.9838   52.9291 H       1  ZINC001500042809    0.0600
     36 H36        -1.4485    4.4342   52.3816 H       1  ZINC001500042809    0.0600
     37 H37        -1.5536    2.4682   51.0457 H       1  ZINC001500042809    0.0800
     38 H38        -3.2850    2.0581   51.0931 H       1  ZINC001500042809    0.0800
     39 H39        -2.9153    2.9523   48.5351 H       1  ZINC001500042809    0.4000
     40 H40        -1.5288   -2.0509   47.8611 H       1  ZINC001500042809    0.0800
     41 H41         0.0193   -1.8548   47.0048 H       1  ZINC001500042809    0.0700
     42 H42        -0.2979   -0.9312   48.4930 H       1  ZINC001500042809    0.0900
     43 H43        -1.0840   -1.1021   44.8154 H       1  ZINC001500042809    0.1500
     44 H44        -2.1396    0.9491   43.7771 H       1  ZINC001500042809    0.1700
     45 H45        -7.5919    3.3322   53.0994 H       1  ZINC001500042809    0.1300
     46 H46        -8.8713    1.7682   54.4973 H       1  ZINC001500042809    0.1400
@<TRIPOS>BOND
     1     1     2    1
     2     1    26    1
     3     1    27    1
     4     1    28    1
     5     2     3    1
     6     3    25   ar
     7     3     4   ar
     8     4     5   ar
     9     4    29    1
    10     5     6   ar
    11     5    30    1
    12     6     7    1
    13     6    24   ar
    14     7     8    2
    15     7     9   am
    16     9    10    1
    17     9    31    1
    18    10    11    1
    19    10    32    1
    20    10    33    1
    21    11    12    1
    22    11    13    1
    23    11    14    1
    24    13    34    1
    25    13    35    1
    26    13    36    1
    27    14    15    1
    28    14    37    1
    29    14    38    1
    30    15    16   am
    31    15    39    1
    32    16    17    2
    33    16    18    1
    34    18    23    1
    35    18    19    2
    36    19    20    1
    37    19    21    1
    38    20    40    1
    39    20    41    1
    40    20    42    1
    41    21    22    2
    42    21    43    1
    43    22    23    1
    44    22    44    1
    45    24    25   ar
    46    24    45    1
    47    25    46    1
@<TRIPOS>SUBSTRUCTURE
     1 ZINC001500042809        1 TEMP              0 ****  ****    0 ROOT


##########                                Name:    ZINC000437192871
##########                DOCK_Rotatable_Bonds:                   9
##########                         Heavy_Atoms:                  28
##########                    Molecular_Weight:             423.298
##########                DOCK_Rotatable_Bonds:                   9
##########                       Formal_Charge:         -8.9407e-08
##########                     HBond_Acceptors:                   9
##########                        HBond_Donors:                   1
##########                         Heavy_Atoms:                  28
##########                          Grid_Score:          -33.733299
##########                     Grid_vdw_energy:          -33.001339
##########                      Grid_es_energy:           -0.731960
##########           Internal_energy_repulsive:           15.744381

@<TRIPOS>MOLECULE
ZINC000437192871
 48 50 1 0 0
SMALL
USER_CHARGES


@<TRIPOS>ATOM
      1 C1          4.9729    2.4698   52.8176 C.3     1  ZINC000437192871   -0.1700
      2 C2          4.6869    2.8565   51.3651 C.3     1  ZINC000437192871    0.1300
      3 N3          3.5514    2.0765   50.8666 N.pl3   1  ZINC000437192871   -0.3600
      4 C4          3.3528    1.6912   49.5887 C.2     1  ZINC000437192871    0.0700
      5 C5          2.1948    0.9927   49.5436 C.2     1  ZINC000437192871   -0.2700
      6 C6          1.5820    0.3703   48.3156 C.3     1  ZINC000437192871    0.1900
      7 N7          0.1316    0.2654   48.4933 N.am    1  ZINC000437192871   -0.6000
      8 C8         -0.4468   -0.9350   49.1024 C.3     1  ZINC000437192871    0.1100
      9 C9         -0.7458   -1.9663   48.0124 C.3     1  ZINC000437192871    0.0600
     10 O10        -1.6589   -1.4079   47.0657 O.3     1  ZINC000437192871   -0.5600
     11 C11        -0.6706    1.2731   48.0966 C.2     1  ZINC000437192871    0.6000
     12 O12        -1.8747    1.1860   48.2440 O.2     1  ZINC000437192871   -0.5000
     13 C13        -0.0891    2.4798   47.4844 C.2     1  ZINC000437192871   -0.2200
     14 C14         0.2862    3.6514   48.0918 C.2     1  ZINC000437192871    0.0100
     15 C15         0.1860    3.9777   49.5597 C.3     1  ZINC000437192871   -0.0800
     16 O16         0.7582    4.4455   47.1280 O.3     1  ZINC000437192871    0.1100
     17 N17         0.7281    3.9398   46.0330 N.2     1  ZINC000437192871   -0.3200
     18 C18         0.2406    2.7255   46.0647 C.2     1  ZINC000437192871    0.0800
     19 C19         0.0516    1.7998   44.9219 C.ar    1  ZINC000437192871   -0.0200
     20 C20        -1.2294    1.3845   44.5630 C.ar    1  ZINC000437192871   -0.0700
     21 C21        -1.4002    0.5234   43.4984 C.ar    1  ZINC000437192871   -0.1000
     22 C22        -0.3019    0.0715   42.7866 C.ar    1  ZINC000437192871   -0.0100
     23 Cl23       -0.5247   -1.0114   41.4480 Cl      1  ZINC000437192871   -0.0500
     24 C24         0.9731    0.4803   43.1381 C.ar    1  ZINC000437192871   -0.1100
     25 C25         1.1550    1.3460   44.1984 C.ar    1  ZINC000437192871    0.0000
     26 Cl26        2.7541    1.8587   44.6384 Cl      1  ZINC000437192871   -0.0300
     27 C27         1.6676    0.9496   50.8384 C.2     1  ZINC000437192871    0.0600
     28 N28         2.4830    1.5939   51.6334 N.2     1  ZINC000437192871   -0.2900
     29 H29         5.8177    3.0501   53.1885 H       1  ZINC000437192871    0.0800
     30 H30         4.0940    2.6763   53.4284 H       1  ZINC000437192871    0.0600
     31 H31         5.2106    1.4073   52.8707 H       1  ZINC000437192871    0.0700
     32 H32         4.4491    3.9190   51.3121 H       1  ZINC000437192871    0.1000
     33 H33         5.5657    2.6499   50.7544 H       1  ZINC000437192871    0.0900
     34 H34         4.0018    1.9027   48.7517 H       1  ZINC000437192871    0.1600
     35 H35         1.7975    0.9925   47.4469 H       1  ZINC000437192871    0.0900
     36 H36         2.0024   -0.6238   48.1637 H       1  ZINC000437192871    0.0800
     37 H37         0.2601   -1.3564   49.8172 H       1  ZINC000437192871    0.1000
     38 H38        -1.3709   -0.6720   49.6171 H       1  ZINC000437192871    0.1000
     39 H39         0.1804   -2.2392   47.5066 H       1  ZINC000437192871    0.0600
     40 H40        -1.1883   -2.8543   48.4639 H       1  ZINC000437192871    0.0500
     41 H41        -2.5068   -1.1416   47.4468 H       1  ZINC000437192871    0.3800
     42 H42         1.1373    3.7615   50.0457 H       1  ZINC000437192871    0.1000
     43 H43        -0.0525    5.0343   49.6815 H       1  ZINC000437192871    0.0900
     44 H44        -0.5994    3.3732   50.0134 H       1  ZINC000437192871    0.0900
     45 H45        -2.0870    1.7358   45.1174 H       1  ZINC000437192871    0.1600
     46 H46        -2.3926    0.2009   43.2200 H       1  ZINC000437192871    0.1500
     47 H47         1.8264    0.1249   42.5797 H       1  ZINC000437192871    0.1500
     48 H48         0.7487    0.4642   51.1321 H       1  ZINC000437192871    0.1800
@<TRIPOS>BOND
     1     1     2    1
     2     1    29    1
     3     1    30    1
     4     1    31    1
     5     2     3    1
     6     2    32    1
     7     2    33    1
     8     3    28    1
     9     3     4    1
    10     4     5    2
    11     4    34    1
    12     5     6    1
    13     5    27    1
    14     6     7    1
    15     6    35    1
    16     6    36    1
    17     7     8    1
    18     7    11   am
    19     8     9    1
    20     8    37    1
    21     8    38    1
    22     9    10    1
    23     9    39    1
    24     9    40    1
    25    10    41    1
    26    11    12    2
    27    11    13    1
    28    13    18    1
    29    13    14    2
    30    14    15    1
    31    14    16    1
    32    15    42    1
    33    15    43    1
    34    15    44    1
    35    16    17    1
    36    17    18    2
    37    18    19    1
    38    19    25   ar
    39    19    20   ar
    40    20    21   ar
    41    20    45    1
    42    21    22   ar
    43    21    46    1
    44    22    23    1
    45    22    24   ar
    46    24    25   ar
    47    24    47    1
    48    25    26    1
    49    27    28    2
    50    27    48    1
@<TRIPOS>SUBSTRUCTURE
     1 ZINC000437192871        1 TEMP              0 ****  ****    0 ROOT


##########                                Name:    ZINC000846412382
##########                DOCK_Rotatable_Bonds:                   6
##########                         Heavy_Atoms:                  26
##########                    Molecular_Weight:             370.475
##########                DOCK_Rotatable_Bonds:                   6
##########                       Formal_Charge:               -0.03
##########                     HBond_Acceptors:                   7
##########                        HBond_Donors:                   4
##########                         Heavy_Atoms:                  26
##########                          Grid_Score:          -33.707630
##########                     Grid_vdw_energy:          -29.844990
##########                      Grid_es_energy:           -3.862641
##########           Internal_energy_repulsive:           23.041216

@<TRIPOS>MOLECULE
ZINC000846412382
 48 50 1 0 0
SMALL
USER_CHARGES


@<TRIPOS>ATOM
      1 C1         -1.7054    3.8755   51.7817 C.3     1  ZINC000846412382   -0.1400
      2 C2         -2.8686    3.3503   50.9804 C.2     1  ZINC000846412382    0.0300
      3 C3         -2.7057    2.7447   49.7973 C.2     1  ZINC000846412382   -0.2700
      4 C4         -1.4097    2.5202   49.1455 C.2     1  ZINC000846412382    0.6000
      5 O5         -1.0377    3.2650   48.2582 O.2     1  ZINC000846412382   -0.5200
      6 N6         -0.6317    1.4890   49.5301 N.am    1  ZINC000846412382   -0.7100
      7 C7          0.6610    1.2638   48.8784 C.3     1  ZINC000846412382    0.1200
      8 H8          0.8814    2.0969   48.2110 H       1  ZINC000846412382    0.1000
      9 C9          1.7564    1.1582   49.9414 C.3     1  ZINC000846412382   -0.1700
     10 C10         0.6061   -0.0350   48.0718 C.3     1  ZINC000846412382    0.1700
     11 C11        -0.2721   -1.0526   48.8027 C.3     1  ZINC000846412382   -0.1400
     12 O12         1.9265   -0.5623   47.9273 O.3     1  ZINC000846412382   -0.5500
     13 C13         0.0246    0.2436   46.7097 C.ar    1  ZINC000846412382   -0.1200
     14 C14        -1.1341   -0.3949   46.3091 C.ar    1  ZINC000846412382   -0.1100
     15 C15        -1.6675   -0.1393   45.0596 C.ar    1  ZINC000846412382   -0.1200
     16 C16        -1.0425    0.7553   44.2112 C.ar    1  ZINC000846412382   -0.1200
     17 C17         0.1158    1.3945   44.6122 C.ar    1  ZINC000846412382   -0.1200
     18 C18         0.6468    1.1421   45.8633 C.ar    1  ZINC000846412382   -0.1000
     19 S19        -4.2556    2.2561   49.1334 S.3     1  ZINC000846412382    0.2000
     20 C20        -5.1124    2.9074   50.5240 C.ar    1  ZINC000846412382    0.1400
     21 N21        -6.4165    2.9438   50.8202 N.ar    1  ZINC000846412382   -0.5300
     22 C22        -6.8433    3.4897   51.9359 C.ar    1  ZINC000846412382    0.3900
     23 C23        -8.3231    3.5034   52.2203 C.3     1  ZINC000846412382   -0.0900
     24 N24        -6.0191    4.0266   52.8170 N.ar    1  ZINC000846412382   -0.5800
     25 C25        -4.7102    4.0401   52.6155 C.ar    1  ZINC000846412382    0.5100
     26 N26        -3.8633    4.6055   53.5471 N.pl3   1  ZINC000846412382   -0.8300
     27 C27        -4.1903    3.4574   51.4253 C.ar    1  ZINC000846412382   -0.2500
     28 H28        -1.4012    3.1273   52.5137 H       1  ZINC000846412382    0.0800
     29 H29        -0.8714    4.0902   51.1137 H       1  ZINC000846412382    0.1100
     30 H30        -2.0023    4.7887   52.2974 H       1  ZINC000846412382    0.0700
     31 H31        -0.9276    0.8959   50.2383 H       1  ZINC000846412382    0.4000
     32 H32         1.5359    0.3250   50.6087 H       1  ZINC000846412382    0.0600
     33 H33         2.7182    0.9907   49.4566 H       1  ZINC000846412382    0.0800
     34 H34         1.7954    2.0836   50.5161 H       1  ZINC000846412382    0.0700
     35 H35        -1.2793   -0.6506   48.9129 H       1  ZINC000846412382    0.0700
     36 H36        -0.3112   -1.9780   48.2282 H       1  ZINC000846412382    0.0700
     37 H37         0.1485   -1.2542   49.7879 H       1  ZINC000846412382    0.0700
     38 H38         2.2726   -0.9806   48.7276 H       1  ZINC000846412382    0.3800
     39 H39        -1.6223   -1.0939   46.9720 H       1  ZINC000846412382    0.1300
     40 H40        -2.5723   -0.6388   44.7463 H       1  ZINC000846412382    0.1200
     41 H41        -1.4588    0.9544   43.2347 H       1  ZINC000846412382    0.1200
     42 H42         0.6042    2.0932   43.9492 H       1  ZINC000846412382    0.1200
     43 H43         1.5517    1.6415   46.1766 H       1  ZINC000846412382    0.1300
     44 H44        -8.5970    2.5995   52.7645 H       1  ZINC000846412382    0.0900
     45 H45        -8.5694    4.3783   52.8219 H       1  ZINC000846412382    0.0900
     46 H46        -8.8734    3.5423   51.2802 H       1  ZINC000846412382    0.0900
     47 H47        -4.2026    5.2617   54.1758 H       1  ZINC000846412382    0.4100
     48 H48        -2.9289    4.3466   53.5732 H       1  ZINC000846412382    0.4200
@<TRIPOS>BOND
     1     1     2    1
     2     1    28    1
     3     1    29    1
     4     1    30    1
     5     2    27    1
     6     2     3    2
     7     3     4    1
     8     3    19    1
     9     4     5    2
    10     4     6   am
    11     6     7    1
    12     6    31    1
    13     7     8    1
    14     7     9    1
    15     7    10    1
    16     9    32    1
    17     9    33    1
    18     9    34    1
    19    10    11    1
    20    10    12    1
    21    10    13    1
    22    11    35    1
    23    11    36    1
    24    11    37    1
    25    12    38    1
    26    13    18   ar
    27    13    14   ar
    28    14    15   ar
    29    14    39    1
    30    15    16   ar
    31    15    40    1
    32    16    17   ar
    33    16    41    1
    34    17    18   ar
    35    17    42    1
    36    18    43    1
    37    19    20    1
    38    20    27   ar
    39    20    21   ar
    40    21    22   ar
    41    22    23    1
    42    22    24   ar
    43    23    44    1
    44    23    45    1
    45    23    46    1
    46    24    25   ar
    47    25    26    1
    48    25    27   ar
    49    26    47    1
    50    26    48    1
@<TRIPOS>SUBSTRUCTURE
     1 ZINC000846412382        1 TEMP              0 ****  ****    0 ROOT


##########                                Name:    ZINC001310073555
##########                DOCK_Rotatable_Bonds:                  12
##########                         Heavy_Atoms:                  27
##########                    Molecular_Weight:             380.484
##########                DOCK_Rotatable_Bonds:                  12
##########                       Formal_Charge:          0.00999888
##########                     HBond_Acceptors:                   7
##########                        HBond_Donors:                   2
##########                         Heavy_Atoms:                  27
##########                          Grid_Score:          -33.687614
##########                     Grid_vdw_energy:          -32.574486
##########                      Grid_es_energy:           -1.113127
##########           Internal_energy_repulsive:           53.996796

@<TRIPOS>MOLECULE
ZINC001310073555
 59 59 1 0 0
SMALL
USER_CHARGES


@<TRIPOS>ATOM
      1 C1         -7.7830    0.8806   52.5491 C.3     1  ZINC001310073555   -0.1600
      2 C2         -6.6921    0.8457   51.4769 C.3     1  ZINC001310073555   -0.1100
      3 C3         -6.1120    2.2495   51.2937 C.3     1  ZINC001310073555   -0.0600
      4 C4         -5.2002    2.5829   52.4762 C.3     1  ZINC001310073555   -0.1100
      5 C5         -4.5468    3.9474   52.2475 C.3     1  ZINC001310073555   -0.1600
      6 C6         -5.3038    2.3020   49.9957 C.3     1  ZINC001310073555    0.1600
      7 N7         -4.1322    1.4305   50.1145 N.am    1  ZINC001310073555   -0.7400
      8 C8         -3.0838    1.5939   49.2834 C.2     1  ZINC001310073555    0.7100
      9 O9         -3.1098    2.4655   48.4359 O.2     1  ZINC001310073555   -0.5700
     10 N10        -2.0066    0.7911   49.3916 N.am    1  ZINC001310073555   -0.6700
     11 C11        -0.9146    0.9612   48.5261 C.ar    1  ZINC001310073555    0.1000
     12 C12        -0.9526    0.4258   47.2478 C.ar    1  ZINC001310073555   -0.0400
     13 C13         0.1226    0.5931   46.3954 C.ar    1  ZINC001310073555   -0.2200
     14 C14         1.2410    1.2969   46.8161 C.ar    1  ZINC001310073555    0.1500
     15 O15         2.2970    1.4598   45.9752 O.3     1  ZINC001310073555   -0.3200
     16 C16         3.1362    0.3235   45.7598 C.3     1  ZINC001310073555    0.0300
     17 C17         1.2832    1.8352   48.0939 C.ar    1  ZINC001310073555   -0.2300
     18 C18         0.2058    1.6730   48.9485 C.ar    1  ZINC001310073555    0.1400
     19 O19         0.2452    2.1999   50.2016 O.3     1  ZINC001310073555   -0.3100
     20 C20         1.2718    1.7232   51.0738 C.3     1  ZINC001310073555    0.0300
     21 C21        -7.2350    3.2523   51.2271 C.2     1  ZINC001310073555    0.4800
     22 O22        -7.6165    3.7999   52.2343 O.2     1  ZINC001310073555   -0.5000
     23 O23        -7.8115    3.5373   50.0489 O.3     1  ZINC001310073555   -0.3400
     24 C24        -8.8870    4.5126   50.0599 C.3     1  ZINC001310073555    0.1200
     25 C25        -8.3603    5.8464   50.5931 C.3     1  ZINC001310073555   -0.1800
     26 C26        -9.4155    4.7051   48.6370 C.3     1  ZINC001310073555   -0.1400
     27 C27       -10.0183    4.0140   50.9611 C.3     1  ZINC001310073555   -0.1800
     28 H28        -8.1963   -0.1196   52.6797 H       1  ZINC001310073555    0.0600
     29 H29        -7.3555    1.2229   53.4916 H       1  ZINC001310073555    0.0500
     30 H30        -8.5746    1.5633   52.2400 H       1  ZINC001310073555    0.0600
     31 H31        -5.9006    0.1630   51.7860 H       1  ZINC001310073555    0.0800
     32 H32        -7.1197    0.5034   50.5346 H       1  ZINC001310073555    0.0800
     33 H33        -5.7894    2.6112   53.3927 H       1  ZINC001310073555    0.0800
     34 H34        -4.4267    1.8200   52.5649 H       1  ZINC001310073555    0.0800
     35 H35        -3.9576    3.9190   51.3310 H       1  ZINC001310073555    0.0600
     36 H36        -5.3203    4.7103   52.1588 H       1  ZINC001310073555    0.0500
     37 H37        -3.8972    4.1849   53.0899 H       1  ZINC001310073555    0.0600
     38 H38        -5.9254    1.9639   49.1667 H       1  ZINC001310073555    0.0800
     39 H39        -4.9780    3.3257   49.8117 H       1  ZINC001310073555    0.0800
     40 H40        -4.1109    0.7360   50.7913 H       1  ZINC001310073555    0.4000
     41 H41        -1.9858    0.0958   50.0676 H       1  ZINC001310073555    0.4100
     42 H42        -1.8226   -0.1227   46.9180 H       1  ZINC001310073555    0.1500
     43 H43         0.0918    0.1748   45.4001 H       1  ZINC001310073555    0.1300
     44 H44         3.5647    0.0031   46.7095 H       1  ZINC001310073555    0.0600
     45 H45         2.5461   -0.4886   45.3351 H       1  ZINC001310073555    0.0600
     46 H46         3.9377    0.5892   45.0707 H       1  ZINC001310073555    0.1000
     47 H47         2.1545    2.3832   48.4208 H       1  ZINC001310073555    0.1400
     48 H48         1.1901    2.2234   52.0387 H       1  ZINC001310073555    0.1000
     49 H49         1.1609    0.6476   51.2117 H       1  ZINC001310073555    0.0600
     50 H50         2.2476    1.9346   50.6363 H       1  ZINC001310073555    0.0600
     51 H51        -7.5543    6.2017   49.9511 H       1  ZINC001310073555    0.0600
     52 H52        -9.1677    6.5787   50.6014 H       1  ZINC001310073555    0.0700
     53 H53        -7.9838    5.7093   51.6068 H       1  ZINC001310073555    0.0800
     54 H54        -9.7907    3.7548   48.2572 H       1  ZINC001310073555    0.0700
     55 H55       -10.2229    5.4373   48.6453 H       1  ZINC001310073555    0.0800
     56 H56        -8.6095    5.0603   47.9950 H       1  ZINC001310073555    0.0700
     57 H57        -9.6418    3.8769   51.9748 H       1  ZINC001310073555    0.0800
     58 H58       -10.8258    4.7462   50.9694 H       1  ZINC001310073555    0.0700
     59 H59       -10.3936    3.0637   50.5812 H       1  ZINC001310073555    0.0600
@<TRIPOS>BOND
     1     1     2    1
     2     1    28    1
     3     1    29    1
     4     1    30    1
     5     2     3    1
     6     2    31    1
     7     2    32    1
     8     3     4    1
     9     3     6    1
    10     3    21    1
    11     4     5    1
    12     4    33    1
    13     4    34    1
    14     5    35    1
    15     5    36    1
    16     5    37    1
    17     6     7    1
    18     6    38    1
    19     6    39    1
    20     7     8   am
    21     7    40    1
    22     8     9    2
    23     8    10   am
    24    10    11    1
    25    10    41    1
    26    11    18   ar
    27    11    12   ar
    28    12    13   ar
    29    12    42    1
    30    13    14   ar
    31    13    43    1
    32    14    15    1
    33    14    17   ar
    34    15    16    1
    35    16    44    1
    36    16    45    1
    37    16    46    1
    38    17    18   ar
    39    17    47    1
    40    18    19    1
    41    19    20    1
    42    20    48    1
    43    20    49    1
    44    20    50    1
    45    21    22    2
    46    21    23    1
    47    23    24    1
    48    24    25    1
    49    24    26    1
    50    24    27    1
    51    25    51    1
    52    25    52    1
    53    25    53    1
    54    26    54    1
    55    26    55    1
    56    26    56    1
    57    27    57    1
    58    27    58    1
    59    27    59    1
@<TRIPOS>SUBSTRUCTURE
     1 ZINC001310073555        1 TEMP              0 ****  ****    0 ROOT


##########                                Name:    ZINC000740930783
##########                DOCK_Rotatable_Bonds:                  11
##########                         Heavy_Atoms:                  27
##########                    Molecular_Weight:             413.257
##########                DOCK_Rotatable_Bonds:                  11
##########                       Formal_Charge:          -0.0100004
##########                     HBond_Acceptors:                   9
##########                        HBond_Donors:                   4
##########                         Heavy_Atoms:                  27
##########                          Grid_Score:          -33.676346
##########                     Grid_vdw_energy:          -30.965656
##########                      Grid_es_energy:           -2.710689
##########           Internal_energy_repulsive:           14.014826

@<TRIPOS>MOLECULE
ZINC000740930783
 45 46 1 0 0
SMALL
USER_CHARGES


@<TRIPOS>ATOM
      1 C1          0.0072   -0.9304   49.0361 C.3     1  ZINC000740930783    0.0200
      2 O2          0.2897    0.4245   48.6802 O.3     1  ZINC000740930783   -0.3000
      3 C3         -0.3417    1.3949   49.3939 C.ar    1  ZINC000740930783    0.1200
      4 C4         -1.7029    1.5815   49.2517 C.ar    1  ZINC000740930783   -0.1400
      5 C5         -2.3492    2.5791   49.9867 C.ar    1  ZINC000740930783   -0.0800
      6 C6         -3.8038    2.7820   49.8385 C.2     1  ZINC000740930783    0.5600
      7 O7         -4.3849    2.3312   48.8704 O.2     1  ZINC000740930783   -0.5300
      8 N8         -4.4876    3.4672   50.7763 N.am    1  ZINC000740930783   -0.7200
      9 C9         -5.9309    3.6701   50.6283 C.3     1  ZINC000740930783    0.0900
     10 C10        -6.6049    3.5565   51.9972 C.3     1  ZINC000740930783    0.1400
     11 H11        -7.4087    4.2892   52.0684 H       1  ZINC000740930783    0.1200
     12 O12        -5.6424    3.8040   53.0241 O.3     1  ZINC000740930783   -0.5500
     13 C13        -7.1724    2.1704   52.1642 C.ar    1  ZINC000740930783   -0.1100
     14 C14        -6.4838    1.0778   51.6726 C.ar    1  ZINC000740930783   -0.1000
     15 C15        -7.0044   -0.1939   51.8258 C.ar    1  ZINC000740930783   -0.1100
     16 C16        -8.2140   -0.3730   52.4700 C.ar    1  ZINC000740930783   -0.1000
     17 C17        -8.9039    0.7191   52.9621 C.ar    1  ZINC000740930783   -0.1100
     18 C18        -8.3805    1.9911   52.8147 C.ar    1  ZINC000740930783   -0.0300
     19 Cl19       -9.2461    3.3633   53.4324 Cl      1  ZINC000740930783   -0.0600
     20 C20        -1.6161    3.3835   50.8622 C.ar    1  ZINC000740930783   -0.1000
     21 C21        -0.2570    3.1921   50.9998 C.ar    1  ZINC000740930783   -0.0200
     22 Cl22        0.6528    4.1922   52.0886 Cl      1  ZINC000740930783   -0.0300
     23 C23         0.3839    2.1971   50.2730 C.ar    1  ZINC000740930783    0.0900
     24 O24         1.7223    2.0121   50.4116 O.3     1  ZINC000740930783   -0.2900
     25 C25         2.1548    1.1920   51.4989 C.3     1  ZINC000740930783    0.0400
     26 C26         3.4696    1.7074   52.0251 C.2     1  ZINC000740930783    0.5200
     27 N27         3.5073    2.4051   53.1776 N.am    1  ZINC000740930783   -0.8500
     28 O28         4.4937    1.4945   51.4114 O.2     1  ZINC000740930783   -0.5100
     29 H29         0.2903   -1.0998   50.0750 H       1  ZINC000740930783    0.0600
     30 H30        -1.0587   -1.1235   48.9139 H       1  ZINC000740930783    0.0600
     31 H31         0.5743   -1.6014   48.3909 H       1  ZINC000740930783    0.1100
     32 H32        -2.2666    0.9580   48.5736 H       1  ZINC000740930783    0.1600
     33 H33        -4.0241    3.8258   51.5493 H       1  ZINC000740930783    0.4100
     34 H34        -6.1178    4.6601   50.2124 H       1  ZINC000740930783    0.0900
     35 H35        -6.3376    2.9121   49.9590 H       1  ZINC000740930783    0.0800
     36 H36        -4.7976    3.3535   52.8882 H       1  ZINC000740930783    0.3800
     37 H37        -5.5390    1.2173   51.1685 H       1  ZINC000740930783    0.1300
     38 H38        -6.4659   -1.0476   51.4414 H       1  ZINC000740930783    0.1300
     39 H39        -8.6206   -1.3666   52.5887 H       1  ZINC000740930783    0.1400
     40 H40        -9.8491    0.5790   53.4655 H       1  ZINC000740930783    0.1400
     41 H41        -2.1131    4.1553   51.4311 H       1  ZINC000740930783    0.1500
     42 H42         1.4095    1.2196   52.2938 H       1  ZINC000740930783    0.0900
     43 H43         2.2791    0.1658   51.1529 H       1  ZINC000740930783    0.0900
     44 H44         4.3536    2.7359   53.5169 H       1  ZINC000740930783    0.4000
     45 H45         2.6879    2.5765   53.6678 H       1  ZINC000740930783    0.4100
@<TRIPOS>BOND
     1     1     2    1
     2     1    29    1
     3     1    30    1
     4     1    31    1
     5     2     3    1
     6     3    23   ar
     7     3     4   ar
     8     4     5   ar
     9     4    32    1
    10     5     6    1
    11     5    20   ar
    12     6     7    2
    13     6     8   am
    14     8     9    1
    15     8    33    1
    16     9    10    1
    17     9    34    1
    18     9    35    1
    19    10    11    1
    20    10    12    1
    21    10    13    1
    22    12    36    1
    23    13    18   ar
    24    13    14   ar
    25    14    15   ar
    26    14    37    1
    27    15    16   ar
    28    15    38    1
    29    16    17   ar
    30    16    39    1
    31    17    18   ar
    32    17    40    1
    33    18    19    1
    34    20    21   ar
    35    20    41    1
    36    21    22    1
    37    21    23   ar
    38    23    24    1
    39    24    25    1
    40    25    26    1
    41    25    42    1
    42    25    43    1
    43    26    27   am
    44    26    28    2
    45    27    44    1
    46    27    45    1
@<TRIPOS>SUBSTRUCTURE
     1 ZINC000740930783        1 TEMP              0 ****  ****    0 ROOT


##########                                Name:    ZINC000821214121
##########                DOCK_Rotatable_Bonds:                  10
##########                         Heavy_Atoms:                  23
##########                    Molecular_Weight:             338.434
##########                DOCK_Rotatable_Bonds:                  10
##########                       Formal_Charge:          0.00999954
##########                     HBond_Acceptors:                   9
##########                        HBond_Donors:                   3
##########                         Heavy_Atoms:                  23
##########                          Grid_Score:          -33.557030
##########                     Grid_vdw_energy:          -31.885180
##########                      Grid_es_energy:           -1.671849
##########           Internal_energy_repulsive:            9.667800

@<TRIPOS>MOLECULE
ZINC000821214121
 45 46 1 0 0
SMALL
USER_CHARGES


@<TRIPOS>ATOM
      1 C1          1.5562    1.2135   47.9994 C.3     1  ZINC000821214121   -0.1500
      2 C2          0.8875    0.1033   47.1863 C.3     1  ZINC000821214121    0.0500
      3 N3         -0.5384    0.4126   47.0153 N.3     1  ZINC000821214121   -0.5200
      4 C4         -1.0581   -0.1708   45.7712 C.3     1  ZINC000821214121    0.0600
      5 C5         -0.4862    0.5901   44.5733 C.3     1  ZINC000821214121   -0.1200
      6 C6         -1.2934    0.2482   43.3194 C.3     1  ZINC000821214121    0.0800
      7 O7         -1.2534   -1.1628   43.0971 O.3     1  ZINC000821214121   -0.5700
      8 C8         -1.3181   -0.0403   48.1749 C.3     1  ZINC000821214121    0.0400
      9 C9         -2.3104    1.0262   48.5607 C.2     1  ZINC000821214121    0.5000
     10 O10        -2.9174    1.6295   47.7008 O.2     1  ZINC000821214121   -0.4800
     11 N11        -2.5236    1.3099   49.8608 N.am    1  ZINC000821214121   -0.6300
     12 C12        -3.4426    2.2951   50.2176 C.2     1  ZINC000821214121    0.0800
     13 C13        -3.1475    3.4383   50.8990 C.2     1  ZINC000821214121   -0.1000
     14 C14        -1.7772    3.7765   51.3525 C.2     1  ZINC000821214121    0.2900
     15 N15        -1.3169    3.6852   52.5870 N.2     1  ZINC000821214121   -0.3300
     16 N16         0.0208    4.1097   52.5314 N.pl3   1  ZINC000821214121   -0.2900
     17 N17         0.2707    4.4192   51.3052 N.2     1  ZINC000821214121    0.0200
     18 N18        -0.7771    4.2249   50.5860 N.2     1  ZINC000821214121   -0.2900
     19 C19        -4.2491    4.2615   51.1317 C.2     1  ZINC000821214121   -0.0500
     20 C20        -4.1385    5.5720   51.8675 C.3     1  ZINC000821214121   -0.1000
     21 C21        -5.4031    3.8055   50.6564 C.2     1  ZINC000821214121   -0.2400
     22 C22        -6.7272    4.5139   50.7826 C.3     1  ZINC000821214121   -0.0800
     23 S23        -5.1624    2.2611   49.8525 S.3     1  ZINC000821214121    0.2600
     24 H24         1.3675    2.1761   47.5239 H       1  ZINC000821214121    0.0700
     25 H25         1.1470    1.2208   49.0096 H       1  ZINC000821214121    0.0500
     26 H26         2.6305    1.0346   48.0437 H       1  ZINC000821214121    0.0600
     27 H27         1.3637    0.0319   46.2084 H       1  ZINC000821214121    0.0900
     28 H28         0.9929   -0.8458   47.7118 H       1  ZINC000821214121    0.0400
     29 H29        -0.7635   -1.2185   45.7104 H       1  ZINC000821214121    0.0400
     30 H30        -2.1456   -0.0979   45.7623 H       1  ZINC000821214121    0.0800
     31 H31        -0.5447    1.6620   44.7621 H       1  ZINC000821214121    0.0800
     32 H32         0.5549    0.3037   44.4244 H       1  ZINC000821214121    0.0700
     33 H33        -2.3273    0.5655   43.4551 H       1  ZINC000821214121    0.0400
     34 H34        -0.8650    0.7637   42.4598 H       1  ZINC000821214121    0.0500
     35 H35        -1.7332   -1.4506   42.3083 H       1  ZINC000821214121    0.3800
     36 H36        -1.8505   -0.9566   47.9194 H       1  ZINC000821214121    0.0700
     37 H37        -0.6466   -0.2317   49.0119 H       1  ZINC000821214121    0.1200
     38 H38        -2.0374    0.8284   50.5484 H       1  ZINC000821214121    0.4200
     39 H39         0.6402    4.1607   53.2761 H       1  ZINC000821214121    0.4700
     40 H40        -3.9376    6.3726   51.1556 H       1  ZINC000821214121    0.0700
     41 H41        -5.0737    5.7759   52.3890 H       1  ZINC000821214121    0.0700
     42 H42        -3.3245    5.5154   52.5901 H       1  ZINC000821214121    0.0900
     43 H43        -6.8718    5.1695   49.9241 H       1  ZINC000821214121    0.0700
     44 H44        -7.5309    3.7784   50.8177 H       1  ZINC000821214121    0.0700
     45 H45        -6.7365    5.1061   51.6977 H       1  ZINC000821214121    0.0800
@<TRIPOS>BOND
     1     1     2    1
     2     1    24    1
     3     1    25    1
     4     1    26    1
     5     2     3    1
     6     2    27    1
     7     2    28    1
     8     3     4    1
     9     3     8    1
    10     4     5    1
    11     4    29    1
    12     4    30    1
    13     5     6    1
    14     5    31    1
    15     5    32    1
    16     6     7    1
    17     6    33    1
    18     6    34    1
    19     7    35    1
    20     8     9    1
    21     8    36    1
    22     8    37    1
    23     9    10    2
    24     9    11   am
    25    11    12    1
    26    11    38    1
    27    12    23    1
    28    12    13    2
    29    13    14    1
    30    13    19    1
    31    14    18    1
    32    14    15    2
    33    15    16    1
    34    16    17    1
    35    16    39    1
    36    17    18    2
    37    19    20    1
    38    19    21    2
    39    20    40    1
    40    20    41    1
    41    20    42    1
    42    21    22    1
    43    21    23    1
    44    22    43    1
    45    22    44    1
    46    22    45    1
@<TRIPOS>SUBSTRUCTURE
     1 ZINC000821214121        1 TEMP              0 ****  ****    0 ROOT


##########                                Name:    ZINC000654672208
##########                DOCK_Rotatable_Bonds:                   5
##########                         Heavy_Atoms:                  25
##########                    Molecular_Weight:             365.497
##########                DOCK_Rotatable_Bonds:                   5
##########                       Formal_Charge:           0.0100001
##########                     HBond_Acceptors:                   7
##########                        HBond_Donors:                   1
##########                         Heavy_Atoms:                  25
##########                          Grid_Score:          -33.554955
##########                     Grid_vdw_energy:          -33.844349
##########                      Grid_es_energy:            0.289393
##########           Internal_energy_repulsive:           18.373446

@<TRIPOS>MOLECULE
ZINC000654672208
 52 54 1 0 0
SMALL
USER_CHARGES


@<TRIPOS>ATOM
      1 C1         -6.2355    3.5264   56.0535 C.3     1  ZINC000654672208   -0.1100
      2 C2         -6.2043    3.0779   54.6152 C.ar    1  ZINC000654672208   -0.1300
      3 C3         -5.5961    3.8595   53.6515 C.ar    1  ZINC000654672208    0.1000
      4 N4         -5.5644    3.4734   52.3909 N.ar    1  ZINC000654672208   -0.4700
      5 C5         -6.1062    2.3366   52.0001 C.ar    1  ZINC000654672208    0.1200
      6 C6         -6.0423    1.9419   50.5471 C.3     1  ZINC000654672208   -0.0900
      7 C7         -5.0366    2.8362   49.8194 C.3     1  ZINC000654672208    0.1500
      8 N8         -3.7470    2.1471   49.7281 N.am    1  ZINC000654672208   -0.7500
      9 C9         -2.6236    2.7609   50.1496 C.2     1  ZINC000654672208    0.7100
     10 O10        -2.6805    3.8867   50.6055 O.2     1  ZINC000654672208   -0.5800
     11 N11        -1.4373    2.1270   50.0656 N.am    1  ZINC000654672208   -0.6300
     12 C12        -0.2044    2.7836   50.5211 C.3     1  ZINC000654672208    0.1300
     13 C13         0.8212    2.7476   49.3839 C.3     1  ZINC000654672208   -0.1400
     14 C14         1.0138    1.3022   48.9208 C.3     1  ZINC000654672208   -0.1100
     15 C15        -0.3152    0.7550   48.3863 C.3     1  ZINC000654672208   -0.0600
     16 C16        -0.1099   -0.6874   47.9122 C.3     1  ZINC000654672208   -0.1200
     17 C17        -1.1127   -0.9821   46.7672 C.3     1  ZINC000654672208   -0.5800
     18 S18        -1.0121    0.5758   45.7967 S.o2    1  ZINC000654672208    2.3800
     19 O19         0.1814    0.5812   45.0256 O.2     1  ZINC000654672208   -0.9300
     20 O20        -2.2635    0.8316   45.1740 O.2     1  ZINC000654672208   -0.9300
     21 C21        -0.8088    1.6697   47.2521 C.3     1  ZINC000654672208   -0.5800
     22 C22        -1.3541    0.7648   49.5226 C.3     1  ZINC000654672208    0.1200
     23 C23        -6.7316    1.5026   52.9078 C.ar    1  ZINC000654672208   -0.1200
     24 C24        -7.3479    0.2049   52.4526 C.3     1  ZINC000654672208   -0.1200
     25 C25        -6.7806    1.8728   54.2429 C.ar    1  ZINC000654672208   -0.0800
     26 H26        -5.3498    3.1553   56.5692 H       1  ZINC000654672208    0.0700
     27 H27        -6.2500    4.6156   56.0942 H       1  ZINC000654672208    0.0700
     28 H28        -7.1294    3.1328   56.5375 H       1  ZINC000654672208    0.0700
     29 H29        -5.1417    4.7977   53.9340 H       1  ZINC000654672208    0.1600
     30 H30        -5.7278    0.9012   50.4668 H       1  ZINC000654672208    0.0900
     31 H31        -7.0270    2.0598   50.0949 H       1  ZINC000654672208    0.0900
     32 H32        -5.4037    3.0546   48.8166 H       1  ZINC000654672208    0.0700
     33 H33        -4.9124    3.7677   50.3718 H       1  ZINC000654672208    0.0700
     34 H34        -3.7017    1.2491   49.3643 H       1  ZINC000654672208    0.3900
     35 H35        -0.4186    3.8186   50.7877 H       1  ZINC000654672208    0.1000
     36 H36         0.1923    2.2552   51.3880 H       1  ZINC000654672208    0.0700
     37 H37         0.4619    3.3517   48.5507 H       1  ZINC000654672208    0.0700
     38 H38         1.7720    3.1456   49.7387 H       1  ZINC000654672208    0.0800
     39 H39         1.7637    1.2707   48.1305 H       1  ZINC000654672208    0.0800
     40 H40         1.3458    0.6926   49.7612 H       1  ZINC000654672208    0.0800
     41 H41         0.9097   -0.8116   47.5473 H       1  ZINC000654672208    0.1000
     42 H42        -0.2868   -1.3740   48.7401 H       1  ZINC000654672208    0.1000
     43 H43        -0.7889   -1.8363   46.1724 H       1  ZINC000654672208    0.1400
     44 H44        -2.1187   -1.1370   47.1572 H       1  ZINC000654672208    0.1400
     45 H45        -1.7634    2.1218   47.5205 H       1  ZINC000654672208    0.1400
     46 H46        -0.0698    2.4430   47.0425 H       1  ZINC000654672208    0.1400
     47 H47        -1.0464    0.0713   50.3052 H       1  ZINC000654672208    0.0800
     48 H48        -2.3272    0.4689   49.1308 H       1  ZINC000654672208    0.0800
     49 H49        -6.6054   -0.5909   52.5133 H       1  ZINC000654672208    0.0800
     50 H50        -8.1952   -0.0393   53.0933 H       1  ZINC000654672208    0.0700
     51 H51        -7.6887    0.3061   51.4223 H       1  ZINC000654672208    0.0700
     52 H52        -7.2626    1.2411   54.9743 H       1  ZINC000654672208    0.1300
@<TRIPOS>BOND
     1     1     2    1
     2     1    26    1
     3     1    27    1
     4     1    28    1
     5     2    25   ar
     6     2     3   ar
     7     3     4   ar
     8     3    29    1
     9     4     5   ar
    10     5     6    1
    11     5    23   ar
    12     6     7    1
    13     6    30    1
    14     6    31    1
    15     7     8    1
    16     7    32    1
    17     7    33    1
    18     8     9   am
    19     8    34    1
    20     9    10    2
    21     9    11   am
    22    11    22    1
    23    11    12    1
    24    12    13    1
    25    12    35    1
    26    12    36    1
    27    13    14    1
    28    13    37    1
    29    13    38    1
    30    14    15    1
    31    14    39    1
    32    14    40    1
    33    15    21    1
    34    15    16    1
    35    15    22    1
    36    16    17    1
    37    16    41    1
    38    16    42    1
    39    17    18    1
    40    17    43    1
    41    17    44    1
    42    18    19    2
    43    18    20    2
    44    18    21    1
    45    21    45    1
    46    21    46    1
    47    22    47    1
    48    22    48    1
    49    23    24    1
    50    23    25   ar
    51    24    49    1
    52    24    50    1
    53    24    51    1
    54    25    52    1
@<TRIPOS>SUBSTRUCTURE
     1 ZINC000654672208        1 TEMP              0 ****  ****    0 ROOT


##########                                Name:    ZINC000007167963
##########                DOCK_Rotatable_Bonds:                   8
##########                         Heavy_Atoms:                  25
##########                    Molecular_Weight:             378.433
##########                DOCK_Rotatable_Bonds:                   8
##########                       Formal_Charge:        -1.01328e-06
##########                     HBond_Acceptors:                  10
##########                        HBond_Donors:                   3
##########                         Heavy_Atoms:                  25
##########                          Grid_Score:          -33.550938
##########                     Grid_vdw_energy:          -33.042488
##########                      Grid_es_energy:           -0.508451
##########           Internal_energy_repulsive:            7.924110

@<TRIPOS>MOLECULE
ZINC000007167963
 39 41 1 0 0
SMALL
USER_CHARGES


@<TRIPOS>ATOM
      1 C1         -6.6931   -0.5755   51.0532 C.3     1  ZINC000007167963   -0.0800
      2 C2         -6.7566    0.4687   52.1380 C.2     1  ZINC000007167963    0.0900
      3 C3         -5.9956    1.5950   52.2043 C.2     1  ZINC000007167963   -0.1500
      4 C4         -4.9604    2.0304   51.2434 C.2     1  ZINC000007167963    0.2600
      5 N5         -4.2274    3.1136   51.3302 N.2     1  ZINC000007167963   -0.2700
      6 N6         -3.4317    3.1736   50.3211 N.2     1  ZINC000007167963   -0.2800
      7 C7         -3.6249    2.1309   49.5495 C.2     1  ZINC000007167963    0.1200
      8 S8         -2.7722    1.7708   48.0502 S.3     1  ZINC000007167963    0.1500
      9 C9         -1.1126    2.3472   48.4863 C.3     1  ZINC000007167963   -0.1200
     10 H10        -1.1556    3.3996   48.7670 H       1  ZINC000007167963    0.1400
     11 C11        -0.5808    1.5269   49.6632 C.3     1  ZINC000007167963   -0.1500
     12 C12        -0.1955    2.1801   47.3023 C.2     1  ZINC000007167963    0.5300
     13 O13         0.3844    3.1417   46.8440 O.2     1  ZINC000007167963   -0.4900
     14 N14        -0.0198    0.9621   46.7527 N.am    1  ZINC000007167963   -0.6100
     15 C15         0.8254    0.8081   45.6642 C.2     1  ZINC000007167963    0.0800
     16 C16         0.4088    0.7055   44.3623 C.2     1  ZINC000007167963   -0.2400
     17 C17        -0.9992    0.7466   43.9554 C.2     1  ZINC000007167963    0.5900
     18 N18        -1.4825   -0.1810   43.1055 N.am    1  ZINC000007167963   -0.8400
     19 O19        -1.7316    1.6185   44.3851 O.2     1  ZINC000007167963   -0.5600
     20 C20         1.5064    0.5535   43.4327 C.2     1  ZINC000007167963   -0.0900
     21 C21         2.6927    0.5435   44.0239 C.2     1  ZINC000007167963   -0.2800
     22 S22         2.5252    0.7276   45.7607 S.3     1  ZINC000007167963    0.3000
     23 O23        -4.5912    1.3823   50.1167 O.3     1  ZINC000007167963   -0.2000
     24 C24        -6.4172    2.2883   53.4285 C.2     1  ZINC000007167963   -0.1800
     25 C25        -7.3776    1.5249   53.9747 C.2     1  ZINC000007167963   -0.0300
     26 O26        -7.5765    0.4487   53.1987 O.3     1  ZINC000007167963   -0.1700
     27 H27        -7.4210   -1.3598   51.2608 H       1  ZINC000007167963    0.0800
     28 H28        -6.9197   -0.1148   50.0917 H       1  ZINC000007167963    0.1000
     29 H29        -5.6927   -1.0072   51.0225 H       1  ZINC000007167963    0.1000
     30 H30        -1.2441    1.6477   50.5196 H       1  ZINC000007167963    0.0900
     31 H31        -0.5378    0.4745   49.3826 H       1  ZINC000007167963    0.0800
     32 H32         0.4185    1.8740   49.9258 H       1  ZINC000007167963    0.0800
     33 H33        -0.4846    0.1933   47.1185 H       1  ZINC000007167963    0.4400
     34 H34        -2.4138   -0.1530   42.8355 H       1  ZINC000007167963    0.4000
     35 H35        -0.8992   -0.8766   42.7639 H       1  ZINC000007167963    0.4100
     36 H36         1.3729    0.4570   42.3654 H       1  ZINC000007167963    0.1500
     37 H37         3.6349    0.4400   43.5062 H       1  ZINC000007167963    0.1700
     38 H38        -6.0325    3.2219   53.8118 H       1  ZINC000007167963    0.1600
     39 H39        -7.9078    1.7443   54.8897 H       1  ZINC000007167963    0.2200
@<TRIPOS>BOND
     1     1     2    1
     2     1    27    1
     3     1    28    1
     4     1    29    1
     5     2    26    1
     6     2     3    2
     7     3     4    1
     8     3    24    1
     9     4    23    1
    10     4     5    2
    11     5     6    1
    12     6     7    2
    13     7     8    1
    14     7    23    1
    15     8     9    1
    16     9    10    1
    17     9    11    1
    18     9    12    1
    19    11    30    1
    20    11    31    1
    21    11    32    1
    22    12    13    2
    23    12    14   am
    24    14    15    1
    25    14    33    1
    26    15    22    1
    27    15    16    2
    28    16    17    1
    29    16    20    1
    30    17    18   am
    31    17    19    2
    32    18    34    1
    33    18    35    1
    34    20    21    2
    35    20    36    1
    36    21    22    1
    37    21    37    1
    38    24    25    2
    39    24    38    1
    40    25    26    1
    41    25    39    1
@<TRIPOS>SUBSTRUCTURE
     1 ZINC000007167963        1 TEMP              0 ****  ****    0 ROOT


##########                                Name:    ZINC000191003171
##########                DOCK_Rotatable_Bonds:                   6
##########                         Heavy_Atoms:                  26
##########                    Molecular_Weight:             389.414
##########                DOCK_Rotatable_Bonds:                   6
##########                       Formal_Charge:          -0.0200002
##########                     HBond_Acceptors:                   8
##########                        HBond_Donors:                   1
##########                         Heavy_Atoms:                  26
##########                          Grid_Score:          -33.516502
##########                     Grid_vdw_energy:          -33.247879
##########                      Grid_es_energy:           -0.268624
##########           Internal_energy_repulsive:           19.489637

@<TRIPOS>MOLECULE
ZINC000191003171
 45 46 1 0 0
SMALL
USER_CHARGES


@<TRIPOS>ATOM
      1 C1         -2.8136    4.2780   53.6639 C.3     1  ZINC000191003171   -0.1200
      2 C2         -3.5959    3.7330   52.4967 C.ar    1  ZINC000191003171   -0.0800
      3 C3         -4.9170    3.3626   52.6629 C.ar    1  ZINC000191003171   -0.0700
      4 C4         -5.6347    2.8626   51.5921 C.ar    1  ZINC000191003171   -0.1800
      5 C5         -7.0751    2.4583   51.7734 C.3     1  ZINC000191003171    0.5100
      6 F6         -7.7350    2.5184   50.5413 F       1  ZINC000191003171   -0.1800
      7 F7         -7.1336    1.1520   52.2705 F       1  ZINC000191003171   -0.1800
      8 F8         -7.6938    3.3293   52.6768 F       1  ZINC000191003171   -0.1800
      9 C9         -5.0312    2.7340   50.3553 C.ar    1  ZINC000191003171   -0.0800
     10 C10        -3.7098    3.1050   50.1890 C.ar    1  ZINC000191003171   -0.1000
     11 C11        -2.9936    3.6089   51.2584 C.ar    1  ZINC000191003171   -0.0500
     12 C12        -1.5532    4.0132   51.0772 C.3     1  ZINC000191003171    0.0900
     13 N13        -1.0913    3.5962   49.7465 N.3     1  ZINC000191003171   -0.6800
     14 C14        -0.6559    2.1933   49.7560 C.3     1  ZINC000191003171    0.1200
     15 H15        -1.2091    1.6463   50.5194 H       1  ZINC000191003171    0.0600
     16 C16         0.8412    2.1260   50.0648 C.3     1  ZINC000191003171   -0.1400
     17 C17        -0.9186    1.5765   48.4065 C.ar    1  ZINC000191003171   -0.0100
     18 C18        -1.0100    0.2030   48.2804 C.ar    1  ZINC000191003171   -0.1300
     19 C19        -1.2510   -0.3642   47.0428 C.ar    1  ZINC000191003171    0.0100
     20 C20        -1.4008    0.4415   45.9302 C.ar    1  ZINC000191003171   -0.7000
     21 S21        -1.7080   -0.2819   44.3532 S.o2    1  ZINC000191003171    2.5000
     22 C22        -0.3092    0.2530   43.3296 C.3     1  ZINC000191003171   -0.6500
     23 O23        -1.6452   -1.6814   44.5914 O.2     1  ZINC000191003171   -0.9300
     24 O24        -2.9113    0.3331   43.9139 O.2     1  ZINC000191003171   -0.9300
     25 C25        -1.3100    1.8176   46.0553 C.ar    1  ZINC000191003171    0.1900
     26 F26        -1.4564    2.6064   44.9683 F       1  ZINC000191003171   -0.1200
     27 C27        -1.0738    2.3847   47.2959 C.ar    1  ZINC000191003171   -0.1700
     28 H28        -2.9268    5.3614   53.7030 H       1  ZINC000191003171    0.0800
     29 H29        -3.1885    3.8399   54.5889 H       1  ZINC000191003171    0.0800
     30 H30        -1.7597    4.0269   53.5439 H       1  ZINC000191003171    0.0600
     31 H31        -5.3887    3.4634   53.6292 H       1  ZINC000191003171    0.1400
     32 H32        -5.5917    2.3434   49.5190 H       1  ZINC000191003171    0.1400
     33 H33        -3.2381    3.0042   49.2227 H       1  ZINC000191003171    0.1400
     34 H34        -1.4653    5.0956   51.1696 H       1  ZINC000191003171    0.0900
     35 H35        -0.9420    3.5325   51.8410 H       1  ZINC000191003171    0.0500
     36 H36        -1.8068    3.7480   49.0514 H       1  ZINC000191003171    0.3500
     37 H37         1.1643    1.0850   50.0719 H       1  ZINC000191003171    0.0600
     38 H38         1.3945    2.6730   49.3013 H       1  ZINC000191003171    0.0700
     39 H39         1.0312    2.5721   51.0410 H       1  ZINC000191003171    0.0600
     40 H40        -0.8926   -0.4275   49.1494 H       1  ZINC000191003171    0.1500
     41 H41        -1.3219   -1.4375   46.9455 H       1  ZINC000191003171    0.1600
     42 H42         0.6211   -0.1077   43.7685 H       1  ZINC000191003171    0.1300
     43 H43        -0.4182   -0.1537   42.3242 H       1  ZINC000191003171    0.1400
     44 H44        -0.2899    1.3418   43.2811 H       1  ZINC000191003171    0.1300
     45 H45        -1.0032    3.4578   47.3947 H       1  ZINC000191003171    0.1500
@<TRIPOS>BOND
     1     1     2    1
     2     1    28    1
     3     1    29    1
     4     1    30    1
     5     2    11   ar
     6     2     3   ar
     7     3     4   ar
     8     3    31    1
     9     4     5    1
    10     4     9   ar
    11     5     6    1
    12     5     7    1
    13     5     8    1
    14     9    10   ar
    15     9    32    1
    16    10    11   ar
    17    10    33    1
    18    11    12    1
    19    12    13    1
    20    12    34    1
    21    12    35    1
    22    13    14    1
    23    13    36    1
    24    14    15    1
    25    14    16    1
    26    14    17    1
    27    16    37    1
    28    16    38    1
    29    16    39    1
    30    17    27   ar
    31    17    18   ar
    32    18    19   ar
    33    18    40    1
    34    19    20   ar
    35    19    41    1
    36    20    21    1
    37    20    25   ar
    38    21    22    1
    39    21    23    2
    40    21    24    2
    41    22    42    1
    42    22    43    1
    43    22    44    1
    44    25    26    1
    45    25    27   ar
    46    27    45    1
@<TRIPOS>SUBSTRUCTURE
     1 ZINC000191003171        1 TEMP              0 ****  ****    0 ROOT


##########                                Name:    ZINC000426037318
##########                DOCK_Rotatable_Bonds:                   7
##########                         Heavy_Atoms:                  28
##########                    Molecular_Weight:             421.904
##########                DOCK_Rotatable_Bonds:                   7
##########                       Formal_Charge:         -0.00999981
##########                     HBond_Acceptors:                   9
##########                        HBond_Donors:                   1
##########                         Heavy_Atoms:                  28
##########                          Grid_Score:          -33.501560
##########                     Grid_vdw_energy:          -33.657246
##########                      Grid_es_energy:            0.155686
##########           Internal_energy_repulsive:           18.398310

@<TRIPOS>MOLECULE
ZINC000426037318
 48 50 1 0 0
SMALL
USER_CHARGES


@<TRIPOS>ATOM
      1 C1        -10.0890   -1.3519   57.0854 C.3     1  ZINC000426037318    0.0300
      2 O2         -9.4842   -0.2726   56.3704 O.3     1  ZINC000426037318   -0.3800
      3 C3         -9.6880   -0.3251   54.9570 C.3     1  ZINC000426037318    0.1300
      4 C4         -8.5607    0.3919   54.2599 C.ar    1  ZINC000426037318    0.3900
      5 N5         -7.9798    1.4111   54.8669 N.ar    1  ZINC000426037318   -0.5700
      6 C6         -6.9862    2.0739   54.2995 C.ar    1  ZINC000426037318    0.4400
      7 O7         -6.4026    3.1155   54.9369 O.3     1  ZINC000426037318   -0.2800
      8 C8         -6.4223    3.0952   56.3656 C.3     1  ZINC000426037318    0.0300
      9 C9         -6.5402    1.6755   53.0104 C.ar    1  ZINC000426037318   -0.2000
     10 C10        -5.5231    2.2043   52.2073 C.2     1  ZINC000426037318    0.0500
     11 C11        -4.6839    3.3783   52.6417 C.3     1  ZINC000426037318   -0.1200
     12 C12        -5.3458    1.5971   51.0276 C.2     1  ZINC000426037318   -0.2700
     13 C13        -4.3390    1.9849   50.0319 C.2     1  ZINC000426037318    0.6000
     14 O14        -4.6256    2.7767   49.1534 O.2     1  ZINC000426037318   -0.5000
     15 N15        -3.0974    1.4640   50.0907 N.am    1  ZINC000426037318   -0.6600
     16 C16        -2.1368    1.8341   49.1407 C.ar    1  ZINC000426037318    0.1200
     17 C17        -1.9304    1.0446   48.0179 C.ar    1  ZINC000426037318   -0.0700
     18 C18        -0.9833    1.4104   47.0812 C.ar    1  ZINC000426037318   -0.0900
     19 C19        -0.7598    0.5532   45.8620 C.3     1  ZINC000426037318   -0.1100
     20 C20        -0.2383    2.5662   47.2620 C.ar    1  ZINC000426037318    0.1300
     21 O21         0.6934    2.9253   46.3390 O.3     1  ZINC000426037318   -0.3100
     22 C22         1.3942    4.1495   46.5670 C.3     1  ZINC000426037318    0.0200
     23 C23        -0.4433    3.3565   48.3837 C.ar    1  ZINC000426037318   -0.1800
     24 C24        -1.3938    2.9952   49.3190 C.ar    1  ZINC000426037318   -0.0300
     25 Cl25       -1.6511    3.9841   50.7224 Cl      1  ZINC000426037318   -0.0600
     26 S26        -6.4820    0.2730   50.8350 S.3     1  ZINC000426037318    0.2200
     27 C27        -7.1924    0.5875   52.4124 C.ar    1  ZINC000426037318    0.1300
     28 N28        -8.1848   -0.0207   53.0712 N.ar    1  ZINC000426037318   -0.5000
     29 H29        -9.8886   -1.2393   58.1509 H       1  ZINC000426037318    0.0900
     30 H30       -11.1656   -1.3425   56.9152 H       1  ZINC000426037318    0.0500
     31 H31        -9.6742   -2.2973   56.7355 H       1  ZINC000426037318    0.0500
     32 H32        -9.7133   -1.3652   54.6319 H       1  ZINC000426037318    0.0900
     33 H33       -10.6338    0.1564   54.7082 H       1  ZINC000426037318    0.0800
     34 H34        -5.9044    2.2055   56.7235 H       1  ZINC000426037318    0.0700
     35 H35        -5.9229    3.9851   56.7485 H       1  ZINC000426037318    0.1100
     36 H36        -7.4549    3.0796   56.7146 H       1  ZINC000426037318    0.0700
     37 H37        -3.8061    3.0185   53.1785 H       1  ZINC000426037318    0.0900
     38 H38        -4.3674    3.9429   51.7648 H       1  ZINC000426037318    0.1000
     39 H39        -5.2711    4.0224   53.2961 H       1  ZINC000426037318    0.0800
     40 H40        -2.8689    0.8330   50.7911 H       1  ZINC000426037318    0.4100
     41 H41        -2.5100    0.1443   47.8768 H       1  ZINC000426037318    0.1600
     42 H42        -1.4175    0.8853   45.0588 H       1  ZINC000426037318    0.0700
     43 H43         0.2783    0.6412   45.5415 H       1  ZINC000426037318    0.0700
     44 H44        -0.9783   -0.4869   46.1041 H       1  ZINC000426037318    0.0700
     45 H45         0.6827    4.9746   46.6011 H       1  ZINC000426037318    0.0600
     46 H46         1.9287    4.0912   47.5151 H       1  ZINC000426037318    0.0600
     47 H47         2.1059    4.3168   45.7585 H       1  ZINC000426037318    0.1000
     48 H48         0.1372    4.2564   48.5237 H       1  ZINC000426037318    0.1500
@<TRIPOS>BOND
     1     1     2    1
     2     1    29    1
     3     1    30    1
     4     1    31    1
     5     2     3    1
     6     3     4    1
     7     3    32    1
     8     3    33    1
     9     4    28   ar
    10     4     5   ar
    11     5     6   ar
    12     6     7    1
    13     6     9   ar
    14     7     8    1
    15     8    34    1
    16     8    35    1
    17     8    36    1
    18     9    27   ar
    19     9    10    1
    20    10    11    1
    21    10    12    2
    22    11    37    1
    23    11    38    1
    24    11    39    1
    25    12    13    1
    26    12    26    1
    27    13    14    2
    28    13    15   am
    29    15    16    1
    30    15    40    1
    31    16    24   ar
    32    16    17   ar
    33    17    18   ar
    34    17    41    1
    35    18    19    1
    36    18    20   ar
    37    19    42    1
    38    19    43    1
    39    19    44    1
    40    20    21    1
    41    20    23   ar
    42    21    22    1
    43    22    45    1
    44    22    46    1
    45    22    47    1
    46    23    24   ar
    47    23    48    1
    48    24    25    1
    49    26    27    1
    50    27    28   ar
@<TRIPOS>SUBSTRUCTURE
     1 ZINC000426037318        1 TEMP              0 ****  ****    0 ROOT


##########                                Name:    ZINC000771225867
##########                DOCK_Rotatable_Bonds:                   9
##########                         Heavy_Atoms:                  23
##########                    Molecular_Weight:             355.802
##########                DOCK_Rotatable_Bonds:                   9
##########                       Formal_Charge:        -3.12924e-07
##########                     HBond_Acceptors:                   9
##########                        HBond_Donors:                   3
##########                         Heavy_Atoms:                  23
##########                          Grid_Score:          -33.495384
##########                     Grid_vdw_energy:          -31.364613
##########                      Grid_es_energy:           -2.130770
##########           Internal_energy_repulsive:            8.533935

@<TRIPOS>MOLECULE
ZINC000771225867
 37 38 1 0 0
SMALL
USER_CHARGES


@<TRIPOS>ATOM
      1 C1         -1.0127   -0.5613   41.9932 C.3     1  ZINC000771225867    0.0400
      2 O2         -0.2082   -0.0691   43.0669 O.3     1  ZINC000771225867   -0.3600
      3 C3         -0.7368   -0.1316   44.3073 C.2     1  ZINC000771225867    0.5500
      4 O4         -1.8766   -0.5286   44.4637 O.2     1  ZINC000771225867   -0.4900
      5 C5          0.0345    0.2646   45.4258 C.2     1  ZINC000771225867   -0.3400
      6 C6          1.1719    1.0284   45.3931 C.2     1  ZINC000771225867    0.2700
      7 Cl7         1.8565    1.6433   43.9210 Cl      1  ZINC000771225867    0.0400
      8 N8          1.6955    1.2527   46.5717 N.2     1  ZINC000771225867   -0.5500
      9 C9          1.0885    0.7372   47.6024 C.2     1  ZINC000771225867    0.3400
     10 N10         1.5043    0.8768   48.9086 N.pl3   1  ZINC000771225867   -0.6700
     11 C11         0.5666    0.6287   50.0064 C.3     1  ZINC000771225867    0.1700
     12 C12        -0.3611    1.8075   50.1507 C.ar    1  ZINC000771225867   -0.0800
     13 C13         0.1327    3.0270   50.5753 C.ar    1  ZINC000771225867   -0.1300
     14 C14        -0.7159    4.1106   50.7088 C.ar    1  ZINC000771225867   -0.0800
     15 C15        -2.0596    3.9770   50.4181 C.ar    1  ZINC000771225867   -0.2000
     16 C16        -2.5577    2.7542   49.9917 C.ar    1  ZINC000771225867    0.1300
     17 O17        -3.8793    2.6203   49.7046 O.3     1  ZINC000771225867   -0.2900
     18 C18        -4.7949    2.7331   50.7958 C.3     1  ZINC000771225867    0.0400
     19 C19        -6.1102    2.1040   50.4150 C.2     1  ZINC000771225867    0.5200
     20 N20        -7.1574    2.8828   50.0782 N.am    1  ZINC000771225867   -0.8500
     21 O21        -6.2266    0.8967   50.4118 O.2     1  ZINC000771225867   -0.5200
     22 C22        -1.7034    1.6701   49.8532 C.ar    1  ZINC000771225867   -0.1200
     23 S23        -0.3000   -0.1291   47.1102 S.3     1  ZINC000771225867    0.2200
     24 H24        -1.2397   -1.6139   42.1623 H       1  ZINC000771225867    0.0600
     25 H25        -1.9414    0.0074   41.9449 H       1  ZINC000771225867    0.0600
     26 H26        -0.4708   -0.4527   41.0538 H       1  ZINC000771225867    0.1000
     27 H27         2.4181    1.1395   49.1013 H       1  ZINC000771225867    0.4200
     28 H28        -0.0156   -0.2675   49.7914 H       1  ZINC000771225867    0.0900
     29 H29         1.1217    0.4875   50.9337 H       1  ZINC000771225867    0.0900
     30 H30         1.1829    3.1333   50.8035 H       1  ZINC000771225867    0.1300
     31 H31        -0.3278    5.0621   51.0410 H       1  ZINC000771225867    0.1300
     32 H32        -2.7220    4.8236   50.5228 H       1  ZINC000771225867    0.1300
     33 H33        -4.3863    2.2217   51.6673 H       1  ZINC000771225867    0.1000
     34 H34        -4.9506    3.7858   51.0321 H       1  ZINC000771225867    0.1000
     35 H35        -8.0037    2.4778   49.8320 H       1  ZINC000771225867    0.4000
     36 H36        -7.0646    3.8483   50.0819 H       1  ZINC000771225867    0.4100
     37 H37        -2.0886    0.7173   49.5215 H       1  ZINC000771225867    0.1400
@<TRIPOS>BOND
     1     1     2    1
     2     1    24    1
     3     1    25    1
     4     1    26    1
     5     2     3    1
     6     3     4    2
     7     3     5    1
     8     5    23    1
     9     5     6    2
    10     6     7    1
    11     6     8    1
    12     8     9    2
    13     9    10    1
    14     9    23    1
    15    10    11    1
    16    10    27    1
    17    11    12    1
    18    11    28    1
    19    11    29    1
    20    12    22   ar
    21    12    13   ar
    22    13    14   ar
    23    13    30    1
    24    14    15   ar
    25    14    31    1
    26    15    16   ar
    27    15    32    1
    28    16    17    1
    29    16    22   ar
    30    17    18    1
    31    18    19    1
    32    18    33    1
    33    18    34    1
    34    19    20   am
    35    19    21    2
    36    20    35    1
    37    20    36    1
    38    22    37    1
@<TRIPOS>SUBSTRUCTURE
     1 ZINC000771225867        1 TEMP              0 ****  ****    0 ROOT


##########                                Name:    ZINC000590699876
##########                DOCK_Rotatable_Bonds:                   9
##########                         Heavy_Atoms:                  30
##########                    Molecular_Weight:              421.54
##########                DOCK_Rotatable_Bonds:                   9
##########                       Formal_Charge:          -0.0300004
##########                     HBond_Acceptors:                   9
##########                        HBond_Donors:                   1
##########                         Heavy_Atoms:                  30
##########                          Grid_Score:          -33.488739
##########                     Grid_vdw_energy:          -33.116074
##########                      Grid_es_energy:           -0.372665
##########           Internal_energy_repulsive:          104.441666

@<TRIPOS>MOLECULE
ZINC000590699876
 65 67 1 0 0
SMALL
USER_CHARGES


@<TRIPOS>ATOM
      1 C1         -7.2489    1.6108   58.3852 C.3     1  ZINC000590699876   -0.1700
      2 C2         -7.2412    2.4691   57.1466 C.2     1  ZINC000590699876    0.5100
      3 O3         -6.9737    3.6492   57.2282 O.2     1  ZINC000590699876   -0.5500
      4 N4         -7.5315    1.9253   55.9481 N.am    1  ZINC000590699876   -0.7200
      5 C5         -7.5257    2.7601   54.7442 C.3     1  ZINC000590699876    0.1100
      6 C6         -8.8981    3.3454   54.5320 C.2     1  ZINC000590699876    0.5300
      7 O7         -9.6122    3.5774   55.4844 O.2     1  ZINC000590699876   -0.5200
      8 N8         -9.3319    3.6109   53.2840 N.am    1  ZINC000590699876   -0.6000
      9 C9        -10.6456    4.1812   52.9340 C.3     1  ZINC000590699876    0.1000
     10 C10       -10.4321    4.8516   51.5539 C.3     1  ZINC000590699876   -0.1300
     11 C11        -9.4550    3.8573   50.8726 C.3     1  ZINC000590699876   -0.1300
     12 C12        -8.5710    3.3856   52.0463 C.3     1  ZINC000590699876    0.1200
     13 H13        -8.3506    2.3234   51.9407 H       1  ZINC000590699876    0.1000
     14 C14        -7.2876    4.1751   52.0709 C.2     1  ZINC000590699876    0.5100
     15 O15        -7.1395    5.0666   52.8798 O.2     1  ZINC000590699876   -0.5200
     16 N16        -6.3044    3.8905   51.1942 N.am    1  ZINC000590699876   -0.6100
     17 C17        -5.0409    4.6434   51.2062 C.3     1  ZINC000590699876    0.1000
     18 C18        -3.8795    3.6446   51.2472 C.3     1  ZINC000590699876    0.0400
     19 N19        -4.0217    2.6874   50.1420 N.3     1  ZINC000590699876   -0.5200
     20 C20        -2.8404    1.8199   50.0416 C.3     1  ZINC000590699876    0.0400
     21 C21        -2.4251    1.7019   48.5979 C.2     1  ZINC000590699876    0.5200
     22 O22        -3.1115    2.1936   47.7272 O.2     1  ZINC000590699876   -0.5100
     23 N23        -1.2908    1.0501   48.2741 N.am    1  ZINC000590699876   -0.6100
     24 C24        -0.4487    0.4493   49.3175 C.3     1  ZINC000590699876    0.1100
     25 C25         0.9830    0.9697   49.1560 C.3     1  ZINC000590699876   -0.1400
     26 C26         1.4621    0.6984   47.7281 C.3     1  ZINC000590699876   -0.1200
     27 C27         0.5635    1.4413   46.7369 C.3     1  ZINC000590699876   -0.1300
     28 C28        -0.8759    0.9213   46.8705 C.3     1  ZINC000590699876    0.1400
     29 H29        -0.9163   -0.1246   46.5664 H       1  ZINC000590699876    0.0700
     30 C30        -1.8053    1.7503   45.9816 C.3     1  ZINC000590699876   -0.1400
     31 C31        -5.2488    1.8918   50.2807 C.3     1  ZINC000590699876    0.0400
     32 C32        -6.4640    2.8147   50.2040 C.3     1  ZINC000590699876    0.1200
     33 H33        -6.9922    2.2205   59.2514 H       1  ZINC000590699876    0.1000
     34 H34        -8.2414    1.1820   58.5240 H       1  ZINC000590699876    0.0900
     35 H35        -6.5188    0.8088   58.2761 H       1  ZINC000590699876    0.0900
     36 H36        -7.7443    0.9812   55.8826 H       1  ZINC000590699876    0.4100
     37 H37        -6.8016    3.5660   54.8642 H       1  ZINC000590699876    0.1000
     38 H38        -7.2527    2.1519   53.8817 H       1  ZINC000590699876    0.1000
     39 H39       -11.3943    3.3923   52.8608 H       1  ZINC000590699876    0.0800
     40 H40       -10.9462    4.9232   53.6738 H       1  ZINC000590699876    0.0800
     41 H41       -11.3698    4.9176   51.0023 H       1  ZINC000590699876    0.0900
     42 H42        -9.9751    5.8351   51.6638 H       1  ZINC000590699876    0.0800
     43 H43        -9.9992    3.0208   50.4344 H       1  ZINC000590699876    0.1000
     44 H44        -8.8526    4.3642   50.1188 H       1  ZINC000590699876    0.0900
     45 H45        -4.9688    5.2520   50.3049 H       1  ZINC000590699876    0.0800
     46 H46        -5.0047    5.2837   52.0876 H       1  ZINC000590699876    0.0900
     47 H47        -2.9356    4.1800   51.1455 H       1  ZINC000590699876    0.0900
     48 H48        -3.8938    3.1089   52.1965 H       1  ZINC000590699876    0.0400
     49 H49        -2.0234    2.2502   50.6208 H       1  ZINC000590699876    0.1000
     50 H50        -3.0814    0.8313   50.4324 H       1  ZINC000590699876    0.0600
     51 H51        -0.8300    0.7276   50.3000 H       1  ZINC000590699876    0.0800
     52 H52        -0.4570   -0.6357   49.2140 H       1  ZINC000590699876    0.0700
     53 H53         1.0042    2.0423   49.3492 H       1  ZINC000590699876    0.0700
     54 H54         1.6375    0.4593   49.8626 H       1  ZINC000590699876    0.0800
     55 H55         2.4894    1.0456   47.6176 H       1  ZINC000590699876    0.0700
     56 H56         1.4173   -0.3720   47.5273 H       1  ZINC000590699876    0.0600
     57 H57         0.5886    2.5094   46.9529 H       1  ZINC000590699876    0.0700
     58 H58         0.9194    1.2664   45.7215 H       1  ZINC000590699876    0.0700
     59 H59        -1.4493    1.7158   44.9519 H       1  ZINC000590699876    0.0400
     60 H60        -2.8147    1.3420   46.0308 H       1  ZINC000590699876    0.0700
     61 H61        -1.8139    2.7835   46.3287 H       1  ZINC000590699876    0.0700
     62 H62        -5.2979    1.1561   49.4779 H       1  ZINC000590699876    0.1100
     63 H63        -5.2440    1.3805   51.2434 H       1  ZINC000590699876    0.0300
     64 H64        -7.3690    2.2471   50.4203 H       1  ZINC000590699876    0.0900
     65 H65        -6.5309    3.2499   49.2069 H       1  ZINC000590699876    0.0800
@<TRIPOS>BOND
     1     1     2    1
     2     1    33    1
     3     1    34    1
     4     1    35    1
     5     2     3    2
     6     2     4   am
     7     4     5    1
     8     4    36    1
     9     5     6    1
    10     5    37    1
    11     5    38    1
    12     6     7    2
    13     6     8   am
    14     8    12    1
    15     8     9    1
    16     9    10    1
    17     9    39    1
    18     9    40    1
    19    10    11    1
    20    10    41    1
    21    10    42    1
    22    11    12    1
    23    11    43    1
    24    11    44    1
    25    12    13    1
    26    12    14    1
    27    14    15    2
    28    14    16   am
    29    16    32    1
    30    16    17    1
    31    17    18    1
    32    17    45    1
    33    17    46    1
    34    18    19    1
    35    18    47    1
    36    18    48    1
    37    19    20    1
    38    19    31    1
    39    20    21    1
    40    20    49    1
    41    20    50    1
    42    21    22    2
    43    21    23   am
    44    23    28    1
    45    23    24    1
    46    24    25    1
    47    24    51    1
    48    24    52    1
    49    25    26    1
    50    25    53    1
    51    25    54    1
    52    26    27    1
    53    26    55    1
    54    26    56    1
    55    27    28    1
    56    27    57    1
    57    27    58    1
    58    28    29    1
    59    28    30    1
    60    30    59    1
    61    30    60    1
    62    30    61    1
    63    31    32    1
    64    31    62    1
    65    31    63    1
    66    32    64    1
    67    32    65    1
@<TRIPOS>SUBSTRUCTURE
     1 ZINC000590699876        1 TEMP              0 ****  ****    0 ROOT


##########                                Name:    ZINC001085817863
##########                DOCK_Rotatable_Bonds:                   7
##########                         Heavy_Atoms:                  24
##########                    Molecular_Weight:             326.442
##########                DOCK_Rotatable_Bonds:                   7
##########                       Formal_Charge:           0.0299998
##########                     HBond_Acceptors:                   5
##########                        HBond_Donors:                   0
##########                         Heavy_Atoms:                  24
##########                          Grid_Score:          -33.488541
##########                     Grid_vdw_energy:          -32.636707
##########                      Grid_es_energy:           -0.851834
##########           Internal_energy_repulsive:           14.661704

@<TRIPOS>MOLECULE
ZINC001085817863
 50 52 1 0 0
SMALL
USER_CHARGES


@<TRIPOS>ATOM
      1 C1          2.3422    1.3001   45.4597 C.3     1  ZINC001085817863   -0.1400
      2 C2          1.6150    2.0890   44.3690 C.3     1  ZINC001085817863   -0.0700
      3 C3          0.6374    1.1855   43.6626 C.2     1  ZINC001085817863    0.1100
      4 C4         -0.6757    1.0071   44.0013 C.2     1  ZINC001085817863   -0.2400
      5 C5         -1.3991    1.6514   45.1104 C.2     1  ZINC001085817863    0.6000
      6 O6         -1.7596    2.8086   45.0105 O.2     1  ZINC001085817863   -0.5300
      7 N7         -1.6617    0.9585   46.2363 N.am    1  ZINC001085817863   -0.6100
      8 C8         -1.2276   -0.4354   46.3566 C.3     1  ZINC001085817863    0.0800
      9 C9         -2.3814    1.5995   47.3397 C.3     1  ZINC001085817863    0.1300
     10 C10        -1.4018    1.9173   48.4711 C.3     1  ZINC001085817863    0.0100
     11 H11        -1.2417    1.0716   49.1400 H       1  ZINC001085817863    0.0800
     12 C12        -0.0990    2.5693   47.9871 C.3     1  ZINC001085817863   -0.1400
     13 C13        -0.2545    3.4181   49.2567 C.3     1  ZINC001085817863    0.0000
     14 N14        -1.7082    3.1752   49.1775 N.3     1  ZINC001085817863   -0.4400
     15 C15        -2.2710    2.9100   50.5082 C.3     1  ZINC001085817863    0.0700
     16 C16        -3.7583    2.6971   50.3913 C.ar    1  ZINC001085817863   -0.1300
     17 C17        -4.6301    3.7715   50.4773 C.ar    1  ZINC001085817863   -0.0700
     18 C18        -5.9905    3.5282   50.3636 C.ar    1  ZINC001085817863   -0.1700
     19 C19        -6.4290    2.2323   50.1696 C.ar    1  ZINC001085817863    0.1000
     20 N20        -5.5705    1.2340   50.0926 N.ar    1  ZINC001085817863   -0.4800
     21 C21        -4.2700    1.4287   50.1910 C.ar    1  ZINC001085817863    0.1200
     22 C22        -1.2180    0.0449   43.0360 C.2     1  ZINC001085817863   -0.1900
     23 C23        -0.2060   -0.2725   42.2091 C.2     1  ZINC001085817863   -0.0200
     24 N24         0.9066    0.4211   42.5872 N.pl3   1  ZINC001085817863   -0.4400
     25 C25         2.2103    0.3381   41.9243 C.3     1  ZINC001085817863    0.0600
     26 H26         3.0494    1.9535   45.9706 H       1  ZINC001085817863    0.0600
     27 H27         1.6161    0.9185   46.1775 H       1  ZINC001085817863    0.0500
     28 H28         2.8793    0.4659   45.0080 H       1  ZINC001085817863    0.0600
     29 H29         1.0780    2.9230   44.8206 H       1  ZINC001085817863    0.0600
     30 H30         2.3412    2.4704   43.6512 H       1  ZINC001085817863    0.1100
     31 H31        -0.1456   -0.4907   46.2368 H       1  ZINC001085817863    0.0700
     32 H32        -1.5044   -0.8187   47.3387 H       1  ZINC001085817863    0.0700
     33 H33        -1.7097   -1.0342   45.5838 H       1  ZINC001085817863    0.0600
     34 H34        -2.8404    2.5228   46.9863 H       1  ZINC001085817863    0.0800
     35 H35        -3.1558    0.9266   47.7080 H       1  ZINC001085817863    0.1000
     36 H36         0.7641    1.9037   47.9982 H       1  ZINC001085817863    0.0800
     37 H37        -0.1996    3.1320   47.0590 H       1  ZINC001085817863    0.1000
     38 H38         0.2117    2.9736   50.1361 H       1  ZINC001085817863    0.0700
     39 H39         0.0200    4.4636   49.1164 H       1  ZINC001085817863    0.0800
     40 H40        -1.8079    2.0166   50.9271 H       1  ZINC001085817863    0.0900
     41 H41        -2.0760    3.7606   51.1613 H       1  ZINC001085817863    0.0500
     42 H42        -4.2586    4.7741   50.6297 H       1  ZINC001085817863    0.1300
     43 H43        -6.6986    4.3414   50.4262 H       1  ZINC001085817863    0.1300
     44 H44        -7.4870    2.0344   50.0804 H       1  ZINC001085817863    0.1600
     45 H45        -3.5976    0.5865   50.1231 H       1  ZINC001085817863    0.1500
     46 H46        -2.2287   -0.3337   42.9973 H       1  ZINC001085817863    0.1600
     47 H47        -0.2652   -0.9607   41.3789 H       1  ZINC001085817863    0.1600
     48 H48         2.2651    1.0881   41.1353 H       1  ZINC001085817863    0.0800
     49 H49         3.0006    0.5191   42.6530 H       1  ZINC001085817863    0.0900
     50 H50         2.3354   -0.6544   41.4915 H       1  ZINC001085817863    0.0900
@<TRIPOS>BOND
     1     1     2    1
     2     1    26    1
     3     1    27    1
     4     1    28    1
     5     2     3    1
     6     2    29    1
     7     2    30    1
     8     3    24    1
     9     3     4    2
    10     4     5    1
    11     4    22    1
    12     5     6    2
    13     5     7   am
    14     7     8    1
    15     7     9    1
    16     8    31    1
    17     8    32    1
    18     8    33    1
    19     9    10    1
    20     9    34    1
    21     9    35    1
    22    10    11    1
    23    10    14    1
    24    10    12    1
    25    12    13    1
    26    12    36    1
    27    12    37    1
    28    13    14    1
    29    13    38    1
    30    13    39    1
    31    14    15    1
    32    15    16    1
    33    15    40    1
    34    15    41    1
    35    16    21   ar
    36    16    17   ar
    37    17    18   ar
    38    17    42    1
    39    18    19   ar
    40    18    43    1
    41    19    20   ar
    42    19    44    1
    43    20    21   ar
    44    21    45    1
    45    22    23    2
    46    22    46    1
    47    23    24    1
    48    23    47    1
    49    24    25    1
    50    25    48    1
    51    25    49    1
    52    25    50    1
@<TRIPOS>SUBSTRUCTURE
     1 ZINC001085817863        1 TEMP              0 ****  ****    0 ROOT


##########                                Name:    ZINC000550217006
##########                DOCK_Rotatable_Bonds:                   7
##########                         Heavy_Atoms:                  27
##########                    Molecular_Weight:             367.404
##########                DOCK_Rotatable_Bonds:                   7
##########                       Formal_Charge:          0.00999951
##########                     HBond_Acceptors:                   7
##########                        HBond_Donors:                   3
##########                         Heavy_Atoms:                  27
##########                          Grid_Score:          -33.484646
##########                     Grid_vdw_energy:          -33.766201
##########                      Grid_es_energy:            0.281555
##########           Internal_energy_repulsive:           13.859423

@<TRIPOS>MOLECULE
ZINC000550217006
 48 50 1 0 0
SMALL
USER_CHARGES


@<TRIPOS>ATOM
      1 C1         -0.9455    1.1644   44.5451 C.3     1  ZINC000550217006   -0.1500
      2 C2         -1.3016    2.3565   45.4358 C.3     1  ZINC000550217006    0.0500
      3 O3         -2.0568    1.9020   46.5604 O.3     1  ZINC000550217006   -0.3100
      4 C4         -1.4325    1.0563   47.4218 C.ar    1  ZINC000550217006    0.1400
      5 C5         -1.5314   -0.3156   47.2424 C.ar    1  ZINC000550217006   -0.2100
      6 C6         -0.8953   -1.1735   48.1191 C.ar    1  ZINC000550217006   -0.0800
      7 C7         -0.1614   -0.6655   49.1748 C.ar    1  ZINC000550217006   -0.1600
      8 C8         -0.0617    0.7019   49.3561 C.ar    1  ZINC000550217006   -0.0700
      9 C9         -0.6906    1.5637   48.4788 C.ar    1  ZINC000550217006   -0.1200
     10 C10        -0.5811    3.0536   48.6766 C.3     1  ZINC000550217006   -0.0800
     11 C11        -0.9583    3.4059   50.1169 C.3     1  ZINC000550217006    0.1300
     12 N12        -2.3679    3.0795   50.3464 N.am    1  ZINC000550217006   -0.7200
     13 C13        -3.2338    4.0474   50.7065 C.2     1  ZINC000550217006    0.5600
     14 O14        -2.8450    5.1908   50.8423 O.2     1  ZINC000550217006   -0.5300
     15 C15        -4.6588    3.7179   50.9367 C.ar    1  ZINC000550217006   -0.0800
     16 C16        -5.6005    4.7404   51.0741 C.ar    1  ZINC000550217006   -0.1000
     17 C17        -6.9211    4.4304   51.2888 C.ar    1  ZINC000550217006   -0.0500
     18 C18        -7.3404    3.0923   51.3718 C.ar    1  ZINC000550217006   -0.1300
     19 C19        -6.4038    2.0687   51.2318 C.ar    1  ZINC000550217006    0.1800
     20 C20        -5.0635    2.3909   51.0110 C.ar    1  ZINC000550217006   -0.0900
     21 N21        -6.7293    0.7243   51.2883 N.am    1  ZINC000550217006   -0.6600
     22 C22        -7.5857    0.1694   52.1406 C.2     1  ZINC000550217006    0.5100
     23 O23        -7.7471   -1.0323   52.1139 O.2     1  ZINC000550217006   -0.5100
     24 C24        -8.3598    0.9880   53.1371 C.3     1  ZINC000550217006    0.0900
     25 N25        -9.2485    1.8970   52.4132 N.am    1  ZINC000550217006   -0.7100
     26 C26        -8.7699    2.8440   51.6082 C.2     1  ZINC000550217006    0.5600
     27 O27        -9.5705    3.5520   51.0291 O.2     1  ZINC000550217006   -0.5200
     28 H28        -1.8604    0.6840   44.1983 H       1  ZINC000550217006    0.0700
     29 H29        -0.3694    1.5111   43.6873 H       1  ZINC000550217006    0.0800
     30 H30        -0.3532    0.4489   45.1155 H       1  ZINC000550217006    0.0700
     31 H31        -0.3867    2.8369   45.7827 H       1  ZINC000550217006    0.0600
     32 H32        -1.8939    3.0720   44.8654 H       1  ZINC000550217006    0.0600
     33 H33        -2.1053   -0.7130   46.4183 H       1  ZINC000550217006    0.1300
     34 H34        -0.9720   -2.2417   47.9799 H       1  ZINC000550217006    0.1300
     35 H35         0.3348   -1.3376   49.8593 H       1  ZINC000550217006    0.1300
     36 H36         0.5120    1.0963   50.1818 H       1  ZINC000550217006    0.1300
     37 H37         0.4429    3.3718   48.4810 H       1  ZINC000550217006    0.0800
     38 H38        -1.2571    3.5621   47.9892 H       1  ZINC000550217006    0.0800
     39 H39        -0.3362    2.8343   50.8056 H       1  ZINC000550217006    0.0700
     40 H40        -0.8003    4.4715   50.2836 H       1  ZINC000550217006    0.0700
     41 H41        -2.6781    2.1666   50.2391 H       1  ZINC000550217006    0.4000
     42 H42        -5.2906    5.7731   51.0118 H       1  ZINC000550217006    0.1400
     43 H43        -7.6453    5.2244   51.3953 H       1  ZINC000550217006    0.1500
     44 H44        -4.3337    1.6019   50.9050 H       1  ZINC000550217006    0.1500
     45 H45        -6.2953    0.1362   50.6505 H       1  ZINC000550217006    0.4200
     46 H46        -8.9510    0.3275   53.7716 H       1  ZINC000550217006    0.1300
     47 H47        -7.6686    1.5650   53.7513 H       1  ZINC000550217006    0.1000
     48 H48       -10.2083    1.8078   52.5216 H       1  ZINC000550217006    0.4200
@<TRIPOS>BOND
     1     1     2    1
     2     1    28    1
     3     1    29    1
     4     1    30    1
     5     2     3    1
     6     2    31    1
     7     2    32    1
     8     3     4    1
     9     4     9   ar
    10     4     5   ar
    11     5     6   ar
    12     5    33    1
    13     6     7   ar
    14     6    34    1
    15     7     8   ar
    16     7    35    1
    17     8     9   ar
    18     8    36    1
    19     9    10    1
    20    10    11    1
    21    10    37    1
    22    10    38    1
    23    11    12    1
    24    11    39    1
    25    11    40    1
    26    12    13   am
    27    12    41    1
    28    13    14    2
    29    13    15    1
    30    15    20   ar
    31    15    16   ar
    32    16    17   ar
    33    16    42    1
    34    17    18   ar
    35    17    43    1
    36    18    26    1
    37    18    19   ar
    38    19    20   ar
    39    19    21    1
    40    20    44    1
    41    21    22   am
    42    21    45    1
    43    22    23    2
    44    22    24    1
    45    24    25    1
    46    24    46    1
    47    24    47    1
    48    25    26   am
    49    25    48    1
    50    26    27    2
@<TRIPOS>SUBSTRUCTURE
     1 ZINC000550217006        1 TEMP              0 ****  ****    0 ROOT


##########                                Name:    ZINC001456096501
##########                DOCK_Rotatable_Bonds:                   7
##########                         Heavy_Atoms:                  24
##########                    Molecular_Weight:             333.431
##########                DOCK_Rotatable_Bonds:                   7
##########                       Formal_Charge:          -0.0200003
##########                     HBond_Acceptors:                   6
##########                        HBond_Donors:                   0
##########                         Heavy_Atoms:                  24
##########                          Grid_Score:          -33.483921
##########                     Grid_vdw_energy:          -33.204575
##########                      Grid_es_energy:           -0.279348
##########           Internal_energy_repulsive:          127.375290

@<TRIPOS>MOLECULE
ZINC001456096501
 51 52 1 0 0
SMALL
USER_CHARGES


@<TRIPOS>ATOM
      1 C1         -1.9009    2.5664   45.3763 C.3     1  ZINC001456096501    0.0400
      2 O2         -1.2745    2.4042   46.6504 O.3     1  ZINC001456096501   -0.2900
      3 C3         -1.2249    1.1487   47.1557 C.ar    1  ZINC001456096501    0.3700
      4 N4         -1.2048    0.1111   46.3367 N.ar    1  ZINC001456096501   -0.5400
      5 C5         -1.1562   -1.1283   46.7858 C.ar    1  ZINC001456096501    0.1600
      6 C6         -1.1242   -1.3978   48.1420 C.ar    1  ZINC001456096501   -0.2200
      7 C7         -1.1434   -0.3492   49.0449 C.ar    1  ZINC001456096501   -0.0200
      8 C8         -1.1896    0.9572   48.5453 C.ar    1  ZINC001456096501   -0.2000
      9 C9         -1.2112    2.1120   49.4632 C.2     1  ZINC001456096501    0.5900
     10 O10        -0.1678    2.6191   49.8269 O.2     1  ZINC001456096501   -0.5100
     11 N11        -2.3877    2.6047   49.8986 N.am    1  ZINC001456096501   -0.6200
     12 C12        -2.5539    3.7457   50.8109 C.3     1  ZINC001456096501    0.1000
     13 C13        -4.0682    3.9277   51.0457 C.3     1  ZINC001456096501   -0.1200
     14 C14        -4.6438    2.5284   50.7025 C.3     1  ZINC001456096501   -0.1200
     15 H15        -4.5524    1.8496   51.5505 H       1  ZINC001456096501    0.0900
     16 C16        -6.0989    2.6321   50.2410 C.3     1  ZINC001456096501    0.1200
     17 N17        -6.9572    2.9196   51.3930 N.am    1  ZINC001456096501   -0.6200
     18 C18        -7.3690    4.2972   51.6739 C.3     1  ZINC001456096501    0.0600
     19 C19        -7.3680    1.9168   52.1943 C.2     1  ZINC001456096501    0.5200
     20 O20        -7.0271    0.7764   51.9619 O.2     1  ZINC001456096501   -0.5300
     21 C21        -8.2508    2.2127   53.3793 C.3     1  ZINC001456096501   -0.0800
     22 C22        -7.4282    2.9051   54.4679 C.3     1  ZINC001456096501   -0.1300
     23 C23        -9.3966    3.1291   52.9455 C.3     1  ZINC001456096501   -0.1500
     24 C24        -8.8238    0.9044   53.9277 C.3     1  ZINC001456096501   -0.1700
     25 C25        -3.7213    2.0930   49.5338 C.3     1  ZINC001456096501    0.1200
     26 H26        -1.3707    1.9720   44.6323 H       1  ZINC001456096501    0.0600
     27 H27        -2.9372    2.2336   45.4359 H       1  ZINC001456096501    0.0600
     28 H28        -1.8729    3.6174   45.0888 H       1  ZINC001456096501    0.1000
     29 H29        -1.1417   -1.9472   46.0820 H       1  ZINC001456096501    0.1700
     30 H30        -1.0850   -2.4182   48.4936 H       1  ZINC001456096501    0.1500
     31 H31        -1.1195   -0.5344   50.1086 H       1  ZINC001456096501    0.1500
     32 H32        -2.0542    3.5393   51.7574 H       1  ZINC001456096501    0.0700
     33 H33        -2.1381    4.6458   50.3583 H       1  ZINC001456096501    0.0700
     34 H34        -4.2692    4.1828   52.0862 H       1  ZINC001456096501    0.0900
     35 H35        -4.4737    4.6864   50.3763 H       1  ZINC001456096501    0.0800
     36 H36        -6.1917    3.4347   49.5095 H       1  ZINC001456096501    0.0800
     37 H37        -6.4041    1.6893   49.7869 H       1  ZINC001456096501    0.0900
     38 H38        -8.3297    4.4935   51.1979 H       1  ZINC001456096501    0.0600
     39 H39        -7.4620    4.4362   52.7510 H       1  ZINC001456096501    0.0900
     40 H40        -6.6216    4.9870   51.2817 H       1  ZINC001456096501    0.0700
     41 H41        -7.0199    3.8372   54.0772 H       1  ZINC001456096501    0.0600
     42 H42        -8.0666    3.1191   55.3249 H       1  ZINC001456096501    0.0600
     43 H43        -6.6118    2.2522   54.7768 H       1  ZINC001456096501    0.0600
     44 H44        -9.9019    2.6954   52.0826 H       1  ZINC001456096501    0.0700
     45 H45       -10.1062    3.2369   53.7659 H       1  ZINC001456096501    0.0700
     46 H46        -8.9980    4.1080   52.6790 H       1  ZINC001456096501    0.0600
     47 H47        -8.0075    0.2515   54.2368 H       1  ZINC001456096501    0.0600
     48 H48        -9.4623    1.1183   54.7849 H       1  ZINC001456096501    0.0700
     49 H49        -9.4098    0.4111   53.1522 H       1  ZINC001456096501    0.0800
     50 H50        -4.0604    2.5362   48.5974 H       1  ZINC001456096501    0.0800
     51 H51        -3.6979    1.0062   49.4535 H       1  ZINC001456096501    0.0700
@<TRIPOS>BOND
     1     1     2    1
     2     1    26    1
     3     1    27    1
     4     1    28    1
     5     2     3    1
     6     3     8   ar
     7     3     4   ar
     8     4     5   ar
     9     5     6   ar
    10     5    29    1
    11     6     7   ar
    12     6    30    1
    13     7     8   ar
    14     7    31    1
    15     8     9    1
    16     9    10    2
    17     9    11   am
    18    11    25    1
    19    11    12    1
    20    12    13    1
    21    12    32    1
    22    12    33    1
    23    13    14    1
    24    13    34    1
    25    13    35    1
    26    14    15    1
    27    14    16    1
    28    14    25    1
    29    16    17    1
    30    16    36    1
    31    16    37    1
    32    17    18    1
    33    17    19   am
    34    18    38    1
    35    18    39    1
    36    18    40    1
    37    19    20    2
    38    19    21    1
    39    21    22    1
    40    21    23    1
    41    21    24    1
    42    22    41    1
    43    22    42    1
    44    22    43    1
    45    23    44    1
    46    23    45    1
    47    23    46    1
    48    24    47    1
    49    24    48    1
    50    24    49    1
    51    25    50    1
    52    25    51    1
@<TRIPOS>SUBSTRUCTURE
     1 ZINC001456096501        1 TEMP              0 ****  ****    0 ROOT


##########                                Name:    ZINC001400108193
##########                DOCK_Rotatable_Bonds:                   9
##########                         Heavy_Atoms:                  25
##########                    Molecular_Weight:              344.41
##########                DOCK_Rotatable_Bonds:                   9
##########                       Formal_Charge:           0.0200001
##########                     HBond_Acceptors:                   6
##########                        HBond_Donors:                   2
##########                         Heavy_Atoms:                  25
##########                          Grid_Score:          -33.477264
##########                     Grid_vdw_energy:          -32.914551
##########                      Grid_es_energy:           -0.562713
##########           Internal_energy_repulsive:            8.237350

@<TRIPOS>MOLECULE
ZINC001400108193
 49 50 1 0 0
SMALL
USER_CHARGES


@<TRIPOS>ATOM
      1 C1          3.9818   -0.0928   43.6762 C.3     1  ZINC001400108193   -0.0800
      2 C2          2.5674    0.3460   43.9561 C.2     1  ZINC001400108193   -0.0100
      3 C3          2.1155    0.8125   45.1302 C.2     1  ZINC001400108193   -0.1600
      4 C4          0.6899    1.1085   44.9257 C.2     1  ZINC001400108193   -0.2300
      5 C5         -0.2597    1.6447   45.9169 C.2     1  ZINC001400108193    0.5900
      6 O6         -1.4050    1.8913   45.5904 O.2     1  ZINC001400108193   -0.5300
      7 N7          0.1410    1.8617   47.1853 N.am    1  ZINC001400108193   -0.7300
      8 C8         -0.8026    2.3964   48.1702 C.3     1  ZINC001400108193    0.1100
      9 C9         -1.5436    1.2409   48.8462 C.3     1  ZINC001400108193    0.1300
     10 H10        -2.2043    0.7612   48.1242 H       1  ZINC001400108193    0.1000
     11 C11        -0.5298    0.2201   49.3670 C.3     1  ZINC001400108193   -0.1600
     12 N12        -2.3357    1.7570   49.9654 N.am    1  ZINC001400108193   -0.7300
     13 C13        -3.5472    2.3021   49.7387 C.2     1  ZINC001400108193    0.5200
     14 O14        -3.9824    2.3640   48.6083 O.2     1  ZINC001400108193   -0.5100
     15 C15        -4.3613    2.8346   50.8897 C.3     1  ZINC001400108193    0.0700
     16 H16        -4.2288    2.1889   51.7578 H       1  ZINC001400108193    0.1000
     17 C17        -3.8951    4.2511   51.2318 C.3     1  ZINC001400108193   -0.1800
     18 O18        -5.7423    2.8630   50.5236 O.3     1  ZINC001400108193   -0.2800
     19 C19        -6.5593    1.9603   51.1272 C.ar    1  ZINC001400108193    0.1200
     20 C20        -6.2854    0.6035   51.0332 C.ar    1  ZINC001400108193   -0.2100
     21 C21        -7.1172   -0.3120   51.6482 C.ar    1  ZINC001400108193   -0.0800
     22 C22        -8.2248    0.1224   52.3525 C.ar    1  ZINC001400108193   -0.1200
     23 C23        -9.1341   -0.8790   53.0172 C.3     1  ZINC001400108193   -0.1100
     24 C24        -8.4971    1.4744   52.4521 C.ar    1  ZINC001400108193   -0.0800
     25 C25        -7.6683    2.3940   51.8390 C.ar    1  ZINC001400108193   -0.1400
     26 C26         0.4286    0.7772   43.6284 C.2     1  ZINC001400108193    0.0200
     27 O27         1.5589    0.3324   43.0707 O.3     1  ZINC001400108193   -0.1700
     28 H28         4.0828   -1.1554   43.8967 H       1  ZINC001400108193    0.0900
     29 H29         4.2162    0.0845   42.6266 H       1  ZINC001400108193    0.0800
     30 H30         4.6692    0.4753   44.3030 H       1  ZINC001400108193    0.0900
     31 H31         2.6831    0.9442   46.0395 H       1  ZINC001400108193    0.1600
     32 H32         1.0541    1.6638   47.4461 H       1  ZINC001400108193    0.4000
     33 H33        -1.5212    3.0455   47.6699 H       1  ZINC001400108193    0.0800
     34 H34        -0.2583    2.9681   48.9218 H       1  ZINC001400108193    0.0900
     35 H35        -1.0576   -0.6030   49.8484 H       1  ZINC001400108193    0.0700
     36 H36         0.0595   -0.1638   48.5342 H       1  ZINC001400108193    0.0700
     37 H37         0.1310    0.6999   50.0889 H       1  ZINC001400108193    0.0600
     38 H38        -1.9881    1.7064   50.8696 H       1  ZINC001400108193    0.4000
     39 H39        -2.8418    4.2295   51.5110 H       1  ZINC001400108193    0.0800
     40 H40        -4.0277    4.8968   50.3636 H       1  ZINC001400108193    0.0800
     41 H41        -4.4839    4.6363   52.0643 H       1  ZINC001400108193    0.0800
     42 H42        -5.4228    0.2635   50.4794 H       1  ZINC001400108193    0.1300
     43 H43        -6.9046   -1.3684   51.5750 H       1  ZINC001400108193    0.1300
     44 H44        -8.7875   -1.0658   54.0335 H       1  ZINC001400108193    0.0700
     45 H45       -10.1496   -0.4842   53.0464 H       1  ZINC001400108193    0.0700
     46 H46        -9.1226   -1.8111   52.4522 H       1  ZINC001400108193    0.0700
     47 H47        -9.3606    1.8115   53.0062 H       1  ZINC001400108193    0.1300
     48 H48        -7.8835    3.4497   51.9140 H       1  ZINC001400108193    0.1300
     49 H49        -0.5284    0.8625   43.1351 H       1  ZINC001400108193    0.2100
@<TRIPOS>BOND
     1     1     2    1
     2     1    28    1
     3     1    29    1
     4     1    30    1
     5     2    27    1
     6     2     3    2
     7     3     4    1
     8     3    31    1
     9     4     5    1
    10     4    26    2
    11     5     6    2
    12     5     7   am
    13     7     8    1
    14     7    32    1
    15     8     9    1
    16     8    33    1
    17     8    34    1
    18     9    10    1
    19     9    11    1
    20     9    12    1
    21    11    35    1
    22    11    36    1
    23    11    37    1
    24    12    13   am
    25    12    38    1
    26    13    14    2
    27    13    15    1
    28    15    16    1
    29    15    17    1
    30    15    18    1
    31    17    39    1
    32    17    40    1
    33    17    41    1
    34    18    19    1
    35    19    25   ar
    36    19    20   ar
    37    20    21   ar
    38    20    42    1
    39    21    22   ar
    40    21    43    1
    41    22    23    1
    42    22    24   ar
    43    23    44    1
    44    23    45    1
    45    23    46    1
    46    24    25   ar
    47    24    47    1
    48    25    48    1
    49    26    27    1
    50    26    49    1
@<TRIPOS>SUBSTRUCTURE
     1 ZINC001400108193        1 TEMP              0 ****  ****    0 ROOT


##########                                Name:    ZINC000805177769
##########                DOCK_Rotatable_Bonds:                  10
##########                         Heavy_Atoms:                  30
##########                    Molecular_Weight:             417.548
##########                DOCK_Rotatable_Bonds:                  10
##########                       Formal_Charge:           0.0199995
##########                     HBond_Acceptors:                   7
##########                        HBond_Donors:                   1
##########                         Heavy_Atoms:                  30
##########                          Grid_Score:          -33.445843
##########                     Grid_vdw_energy:          -31.174078
##########                      Grid_es_energy:           -2.271766
##########           Internal_energy_repulsive:           45.739658

@<TRIPOS>MOLECULE
ZINC000805177769
 65 66 1 0 0
SMALL
USER_CHARGES


@<TRIPOS>ATOM
      1 C1         -1.3699   -0.2379   42.9150 C.3     1  ZINC000805177769   -0.1200
      2 C2         -0.7282   -0.1392   44.2750 C.ar    1  ZINC000805177769   -0.0800
      3 C3         -1.3965   -0.6081   45.3901 C.ar    1  ZINC000805177769   -0.1200
      4 C4         -0.8077   -0.5175   46.6379 C.ar    1  ZINC000805177769   -0.1100
      5 C5          0.4493    0.0418   46.7699 C.ar    1  ZINC000805177769   -0.0900
      6 C6          1.0908    0.1410   48.1299 C.3     1  ZINC000805177769   -0.0900
      7 C7          0.7980    1.5165   48.7327 C.3     1  ZINC000805177769    0.1500
      8 H8          0.8122    2.2692   47.9445 H       1  ZINC000805177769    0.1000
      9 C9          1.8635    1.8525   49.7780 C.3     1  ZINC000805177769   -0.1700
     10 N10        -0.5218    1.5001   49.3684 N.am    1  ZINC000805177769   -0.6900
     11 C11        -1.5321    2.2208   48.8426 C.2     1  ZINC000805177769    0.5100
     12 O12        -1.3480    2.8845   47.8435 O.2     1  ZINC000805177769   -0.5100
     13 C13        -2.8788    2.2027   49.4902 C.2     1  ZINC000805177769    0.5200
     14 O14        -3.8043    1.6334   48.9499 O.2     1  ZINC000805177769   -0.5200
     15 N15        -3.0655    2.8187   50.6743 N.am    1  ZINC000805177769   -0.5900
     16 C16        -2.0366    3.5423   51.4353 C.3     1  ZINC000805177769    0.1100
     17 C17        -2.7133    4.1002   52.7051 C.3     1  ZINC000805177769   -0.1500
     18 C18        -4.2132    4.1418   52.3097 C.3     1  ZINC000805177769    0.1500
     19 H19        -4.4426    5.0434   51.7418 H       1  ZINC000805177769    0.1200
     20 N20        -5.0711    4.0370   53.4927 N.am    1  ZINC000805177769   -0.5900
     21 C21        -4.5446    4.3913   54.8131 C.3     1  ZINC000805177769    0.0800
     22 C22        -6.3446    3.6146   53.3662 C.2     1  ZINC000805177769    0.6600
     23 O23        -7.0557    3.5261   54.3476 O.2     1  ZINC000805177769   -0.5600
     24 O24        -6.8290    3.2903   52.1525 O.3     1  ZINC000805177769   -0.3600
     25 C25        -8.1386    3.8120   51.8046 C.3     1  ZINC000805177769    0.1400
     26 C26        -9.2217    2.9130   52.4046 C.3     1  ZINC000805177769   -0.1800
     27 C27        -8.2870    5.2297   52.3604 C.3     1  ZINC000805177769   -0.1400
     28 C28        -8.2872    3.8429   50.2821 C.3     1  ZINC000805177769   -0.1800
     29 C29        -4.3368    2.8839   51.4179 C.3     1  ZINC000805177769    0.0900
     30 C30         1.1184    0.5096   45.6541 C.ar    1  ZINC000805177769   -0.0800
     31 C31         2.4892    1.1190   45.7980 C.3     1  ZINC000805177769   -0.1200
     32 C32         0.5314    0.4155   44.4063 C.ar    1  ZINC000805177769   -0.1200
     33 H33        -1.1024   -1.1894   42.4553 H       1  ZINC000805177769    0.0700
     34 H34        -2.4532   -0.1767   43.0191 H       1  ZINC000805177769    0.0700
     35 H35        -1.0183    0.5806   42.2870 H       1  ZINC000805177769    0.0700
     36 H36        -2.3787   -1.0451   45.2870 H       1  ZINC000805177769    0.1200
     37 H37        -1.3303   -0.8833   47.5093 H       1  ZINC000805177769    0.1200
     38 H38         0.6858   -0.6343   48.7801 H       1  ZINC000805177769    0.0800
     39 H39         2.1684    0.0083   48.0339 H       1  ZINC000805177769    0.0900
     40 H40         1.8492    1.0998   50.5662 H       1  ZINC000805177769    0.0600
     41 H41         2.8454    1.8647   49.3049 H       1  ZINC000805177769    0.0700
     42 H42         1.6549    2.8324   50.2075 H       1  ZINC000805177769    0.0600
     43 H43        -0.6686    0.9706   50.1678 H       1  ZINC000805177769    0.4100
     44 H44        -1.2326    2.8606   51.7129 H       1  ZINC000805177769    0.0900
     45 H45        -1.6401    4.3619   50.8361 H       1  ZINC000805177769    0.0900
     46 H46        -2.5560    3.4316   53.5515 H       1  ZINC000805177769    0.0900
     47 H47        -2.3459    5.1015   52.9297 H       1  ZINC000805177769    0.0900
     48 H48        -4.7222    5.4498   55.0031 H       1  ZINC000805177769    0.0600
     49 H49        -5.0463    3.7961   55.5760 H       1  ZINC000805177769    0.0800
     50 H50        -3.4734    4.1916   54.8427 H       1  ZINC000805177769    0.0800
     51 H51        -9.1158    2.8909   53.4892 H       1  ZINC000805177769    0.0600
     52 H52       -10.2047    3.3046   52.1433 H       1  ZINC000805177769    0.0700
     53 H53        -9.1159    1.9030   52.0085 H       1  ZINC000805177769    0.0900
     54 H54        -7.5155    5.8701   51.9330 H       1  ZINC000805177769    0.0700
     55 H55        -9.2701    5.6213   52.0993 H       1  ZINC000805177769    0.0800
     56 H56        -8.1811    5.2076   53.4451 H       1  ZINC000805177769    0.0700
     57 H57        -8.1816    2.8330   49.8862 H       1  ZINC000805177769    0.0900
     58 H58        -9.2703    4.2346   50.0209 H       1  ZINC000805177769    0.0700
     59 H59        -7.5157    4.4834   49.8548 H       1  ZINC000805177769    0.0600
     60 H60        -5.1769    2.9868   50.7313 H       1  ZINC000805177769    0.0900
     61 H61        -4.4561    1.9924   52.0337 H       1  ZINC000805177769    0.0800
     62 H62         3.2452    0.3399   45.6996 H       1  ZINC000805177769    0.0700
     63 H63         2.6369    1.8689   45.0209 H       1  ZINC000805177769    0.0700
     64 H64         2.5770    1.5888   46.7776 H       1  ZINC000805177769    0.0700
     65 H65         1.0540    0.7810   43.5347 H       1  ZINC000805177769    0.1200
@<TRIPOS>BOND
     1     1     2    1
     2     1    33    1
     3     1    34    1
     4     1    35    1
     5     2    32   ar
     6     2     3   ar
     7     3     4   ar
     8     3    36    1
     9     4     5   ar
    10     4    37    1
    11     5     6    1
    12     5    30   ar
    13     6     7    1
    14     6    38    1
    15     6    39    1
    16     7     8    1
    17     7     9    1
    18     7    10    1
    19     9    40    1
    20     9    41    1
    21     9    42    1
    22    10    11   am
    23    10    43    1
    24    11    12    2
    25    11    13    1
    26    13    14    2
    27    13    15   am
    28    15    29    1
    29    15    16    1
    30    16    17    1
    31    16    44    1
    32    16    45    1
    33    17    18    1
    34    17    46    1
    35    17    47    1
    36    18    19    1
    37    18    20    1
    38    18    29    1
    39    20    21    1
    40    20    22   am
    41    21    48    1
    42    21    49    1
    43    21    50    1
    44    22    23    2
    45    22    24    1
    46    24    25    1
    47    25    26    1
    48    25    27    1
    49    25    28    1
    50    26    51    1
    51    26    52    1
    52    26    53    1
    53    27    54    1
    54    27    55    1
    55    27    56    1
    56    28    57    1
    57    28    58    1
    58    28    59    1
    59    29    60    1
    60    29    61    1
    61    30    31    1
    62    30    32   ar
    63    31    62    1
    64    31    63    1
    65    31    64    1
    66    32    65    1
@<TRIPOS>SUBSTRUCTURE
     1 ZINC000805177769        1 TEMP              0 ****  ****    0 ROOT


##########                                Name:    ZINC001340305486
##########                DOCK_Rotatable_Bonds:                   8
##########                         Heavy_Atoms:                  27
##########                    Molecular_Weight:             378.431
##########                DOCK_Rotatable_Bonds:                   8
##########                       Formal_Charge:          0.00999955
##########                     HBond_Acceptors:                  10
##########                        HBond_Donors:                   2
##########                         Heavy_Atoms:                  27
##########                          Grid_Score:          -33.442081
##########                     Grid_vdw_energy:          -32.525501
##########                      Grid_es_energy:           -0.916580
##########           Internal_energy_repulsive:           10.210411

@<TRIPOS>MOLECULE
ZINC001340305486
 53 55 1 0 0
SMALL
USER_CHARGES


@<TRIPOS>ATOM
      1 C1         -0.8655   -1.8427   47.6092 C.3     1  ZINC001340305486    0.0900
      2 N2         -0.7713   -0.8259   48.6595 N.am    1  ZINC001340305486   -0.7300
      3 C3         -1.0791    0.4573   48.3848 C.2     1  ZINC001340305486    0.5200
      4 O4         -1.4326    0.7702   47.2676 O.2     1  ZINC001340305486   -0.5100
      5 C5         -0.9839    1.5030   49.4656 C.3     1  ZINC001340305486    0.0600
      6 H6         -1.1550    1.0392   50.4370 H       1  ZINC001340305486    0.0900
      7 C7         -2.0398    2.5876   49.2231 C.3     1  ZINC001340305486    0.0900
      8 N8         -1.8054    3.6847   50.1753 N.am    1  ZINC001340305486   -0.5800
      9 C9         -2.8082    4.1726   50.9322 C.2     1  ZINC001340305486    0.5100
     10 O10        -2.5949    5.0782   51.7114 O.2     1  ZINC001340305486   -0.5200
     11 C11        -4.1828    3.5985   50.8118 C.2     1  ZINC001340305486    0.5200
     12 O12        -4.9312    3.9937   49.9421 O.2     1  ZINC001340305486   -0.5000
     13 N13        -4.5911    2.6421   51.6691 N.am    1  ZINC001340305486   -0.6900
     14 C14        -5.9392    2.0807   51.5520 C.3     1  ZINC001340305486    0.1200
     15 C15        -6.4383    1.6601   52.9358 C.3     1  ZINC001340305486   -0.0400
     16 C16        -7.4676    0.5692   52.7883 C.2     1  ZINC001340305486    0.1700
     17 N17        -7.3795   -0.4817   52.0165 N.2     1  ZINC001340305486   -0.2800
     18 N18        -8.4365   -1.2052   52.1462 N.2     1  ZINC001340305486   -0.2900
     19 C19        -9.2408   -0.6510   53.0079 C.2     1  ZINC001340305486    0.1900
     20 C20       -10.5740   -1.1739   53.4761 C.3     1  ZINC001340305486   -0.0400
     21 C21       -11.5967   -0.0341   53.4484 C.3     1  ZINC001340305486   -0.1200
     22 C22       -11.5645    0.7140   54.7777 C.3     1  ZINC001340305486   -0.1300
     23 C23       -10.1478    0.7277   55.3500 C.3     1  ZINC001340305486   -0.1400
     24 C24        -9.2074    1.4548   54.3848 C.3     1  ZINC001340305486    0.1000
     25 N25        -8.6524    0.4911   53.4336 N.pl3   1  ZINC001340305486   -0.4600
     26 C26        -0.4439    4.2338   50.2764 C.3     1  ZINC001340305486    0.0200
     27 C27         0.5342    3.0690   50.4676 C.3     1  ZINC001340305486    0.0500
     28 O28         0.3162    2.0969   49.4423 O.3     1  ZINC001340305486   -0.3500
     29 H29        -1.8903   -1.8908   47.2409 H       1  ZINC001340305486    0.0600
     30 H30        -0.1966   -1.5813   46.7892 H       1  ZINC001340305486    0.0600
     31 H31        -0.5798   -2.8128   48.0160 H       1  ZINC001340305486    0.0800
     32 H32        -0.4874   -1.0759   49.5527 H       1  ZINC001340305486    0.4000
     33 H33        -1.9537    2.9621   48.2030 H       1  ZINC001340305486    0.0900
     34 H34        -3.0353    2.1722   49.3794 H       1  ZINC001340305486    0.1100
     35 H35        -3.9924    2.3255   52.3634 H       1  ZINC001340305486    0.4200
     36 H36        -6.6109    2.8319   51.1363 H       1  ZINC001340305486    0.0900
     37 H37        -5.9151    1.2114   50.8949 H       1  ZINC001340305486    0.0800
     38 H38        -5.6006    1.2917   53.5278 H       1  ZINC001340305486    0.0900
     39 H39        -6.8874    2.5180   53.4363 H       1  ZINC001340305486    0.1100
     40 H40       -10.9037   -1.9755   52.8152 H       1  ZINC001340305486    0.1000
     41 H41       -10.4796   -1.5542   54.4933 H       1  ZINC001340305486    0.0900
     42 H42       -11.3521    0.6536   52.6389 H       1  ZINC001340305486    0.0600
     43 H43       -12.5936   -0.4445   53.2869 H       1  ZINC001340305486    0.0800
     44 H44       -11.8994    1.7395   54.6217 H       1  ZINC001340305486    0.0700
     45 H45       -12.2330    0.2215   55.4840 H       1  ZINC001340305486    0.0800
     46 H46       -10.1499    1.2425   56.3109 H       1  ZINC001340305486    0.0900
     47 H47        -9.8031   -0.2969   55.4894 H       1  ZINC001340305486    0.0800
     48 H48        -9.7618    2.2239   53.8471 H       1  ZINC001340305486    0.0900
     49 H49        -8.3957    1.9169   54.9467 H       1  ZINC001340305486    0.1000
     50 H50        -0.1973    4.7741   49.3624 H       1  ZINC001340305486    0.0800
     51 H51        -0.3827    4.9086   51.1302 H       1  ZINC001340305486    0.1700
     52 H52         1.5576    3.4393   50.4066 H       1  ZINC001340305486    0.1200
     53 H53         0.3692    2.6115   51.4431 H       1  ZINC001340305486    0.0600
@<TRIPOS>BOND
     1     1     2    1
     2     1    29    1
     3     1    30    1
     4     1    31    1
     5     2     3   am
     6     2    32    1
     7     3     4    2
     8     3     5    1
     9     5     6    1
    10     5    28    1
    11     5     7    1
    12     7     8    1
    13     7    33    1
    14     7    34    1
    15     8     9   am
    16     8    26    1
    17     9    10    2
    18     9    11    1
    19    11    12    2
    20    11    13   am
    21    13    14    1
    22    13    35    1
    23    14    15    1
    24    14    36    1
    25    14    37    1
    26    15    16    1
    27    15    38    1
    28    15    39    1
    29    16    25    1
    30    16    17    2
    31    17    18    1
    32    18    19    2
    33    19    25    1
    34    19    20    1
    35    20    21    1
    36    20    40    1
    37    20    41    1
    38    21    22    1
    39    21    42    1
    40    21    43    1
    41    22    23    1
    42    22    44    1
    43    22    45    1
    44    23    24    1
    45    23    46    1
    46    23    47    1
    47    24    25    1
    48    24    48    1
    49    24    49    1
    50    26    27    1
    51    26    50    1
    52    26    51    1
    53    27    28    1
    54    27    52    1
    55    27    53    1
@<TRIPOS>SUBSTRUCTURE
     1 ZINC001340305486        1 TEMP              0 ****  ****    0 ROOT


##########                                Name:    ZINC000938043669
##########                DOCK_Rotatable_Bonds:                   7
##########                         Heavy_Atoms:                  27
##########                    Molecular_Weight:             372.439
##########                DOCK_Rotatable_Bonds:                   7
##########                       Formal_Charge:           0.0499999
##########                     HBond_Acceptors:                   6
##########                        HBond_Donors:                   1
##########                         Heavy_Atoms:                  27
##########                          Grid_Score:          -33.419411
##########                     Grid_vdw_energy:          -33.334026
##########                      Grid_es_energy:           -0.085385
##########           Internal_energy_repulsive:           20.347633

@<TRIPOS>MOLECULE
ZINC000938043669
 52 55 1 0 0
SMALL
USER_CHARGES


@<TRIPOS>ATOM
      1 O1         -6.6650    0.8916   51.1122 O.2     1  ZINC000938043669   -0.5000
      2 C2         -6.1791    1.8849   51.6104 C.2     1  ZINC000938043669    0.5300
      3 C3         -6.7987    2.4891   52.8442 C.3     1  ZINC000938043669    0.0500
      4 O4         -8.1951    2.1872   52.8726 O.3     1  ZINC000938043669   -0.2800
      5 C5         -8.9760    2.7893   51.9366 C.ar    1  ZINC000938043669    0.0900
      6 C6         -8.4291    3.7275   51.0751 C.ar    1  ZINC000938043669   -0.1800
      7 C7         -9.2246    4.3381   50.1239 C.ar    1  ZINC000938043669   -0.0900
      8 C8        -10.5651    4.0144   50.0301 C.ar    1  ZINC000938043669   -0.1300
      9 C9        -11.1150    3.0792   50.8878 C.ar    1  ZINC000938043669   -0.1100
     10 C10       -10.3226    2.4610   51.8378 C.ar    1  ZINC000938043669    0.0800
     11 F11       -10.8593    1.5473   52.6757 F       1  ZINC000938043669   -0.1300
     12 N12        -5.0818    2.4452   51.0640 N.am    1  ZINC000938043669   -0.6200
     13 C13        -4.3905    3.6417   51.5656 C.3     1  ZINC000938043669    0.1000
     14 C14        -3.1795    3.8921   50.6424 C.3     1  ZINC000938043669   -0.1400
     15 C15        -2.9304    2.4973   50.0101 C.3     1  ZINC000938043669    0.1300
     16 H16        -2.3434    1.8654   50.6766 H       1  ZINC000938043669    0.1100
     17 N17        -2.2813    2.6218   48.7026 N.am    1  ZINC000938043669   -0.7200
     18 C18        -1.4000    1.6867   48.2960 C.2     1  ZINC000938043669    0.5200
     19 O19        -1.1453    0.7414   49.0118 O.2     1  ZINC000938043669   -0.5200
     20 C20        -0.7311    1.8157   46.9518 C.3     1  ZINC000938043669   -0.1000
     21 H21        -0.2121    2.7725   46.8949 H       1  ZINC000938043669    0.1000
     22 C22        -1.7879    1.7426   45.8473 C.3     1  ZINC000938043669   -0.1100
     23 C23        -1.4867    0.5529   44.9267 C.3     1  ZINC000938043669   -0.0600
     24 H24        -2.2570    0.4512   44.1623 H       1  ZINC000938043669    0.0800
     25 C25        -1.4144   -0.6980   45.7899 C.2     1  ZINC000938043669   -0.1800
     26 C26        -0.4953   -0.6344   46.7504 C.2     1  ZINC000938043669   -0.1300
     27 C27         0.2787    0.6750   46.7719 C.3     1  ZINC000938043669   -0.0400
     28 H28         1.0201    0.6726   47.5710 H       1  ZINC000938043669    0.0900
     29 C29         0.9540    0.8399   45.4034 C.3     1  ZINC000938043669   -0.1200
     30 C30        -0.1099    0.7756   44.2857 C.3     1  ZINC000938043669   -0.1100
     31 C31        -4.3725    1.9560   49.8678 C.3     1  ZINC000938043669    0.1000
     32 H32        -6.3193    2.0753   53.7314 H       1  ZINC000938043669    0.1000
     33 H33        -6.6610    3.5703   52.8277 H       1  ZINC000938043669    0.1000
     34 H34        -7.3819    3.9816   51.1475 H       1  ZINC000938043669    0.1400
     35 H35        -8.7982    5.0693   49.4531 H       1  ZINC000938043669    0.1300
     36 H36       -11.1843    4.4931   49.2859 H       1  ZINC000938043669    0.1400
     37 H37       -12.1628    2.8284   50.8128 H       1  ZINC000938043669    0.1500
     38 H38        -5.0633    4.4988   51.5351 H       1  ZINC000938043669    0.0800
     39 H39        -4.0493    3.4719   52.5868 H       1  ZINC000938043669    0.0800
     40 H40        -3.4252    4.6254   49.8743 H       1  ZINC000938043669    0.0900
     41 H41        -2.3134    4.2135   51.2210 H       1  ZINC000938043669    0.1000
     42 H42        -2.4860    3.3772   48.1295 H       1  ZINC000938043669    0.4000
     43 H43        -2.7731    1.6145   46.2955 H       1  ZINC000938043669    0.0700
     44 H44        -1.7704    2.6647   45.2665 H       1  ZINC000938043669    0.0800
     45 H45        -2.0499   -1.5578   45.6373 H       1  ZINC000938043669    0.1200
     46 H46        -0.3162   -1.4375   47.4500 H       1  ZINC000938043669    0.1200
     47 H47         1.4572    1.8058   45.3608 H       1  ZINC000938043669    0.0700
     48 H48         1.6844    0.0435   45.2606 H       1  ZINC000938043669    0.0700
     49 H49         0.1160   -0.0548   43.6167 H       1  ZINC000938043669    0.0700
     50 H50        -0.1012    1.7084   43.7220 H       1  ZINC000938043669    0.0700
     51 H51        -4.3680    0.8662   49.8444 H       1  ZINC000938043669    0.0900
     52 H52        -4.8397    2.3537   48.9669 H       1  ZINC000938043669    0.0700
@<TRIPOS>BOND
     1     1     2    2
     2     2     3    1
     3     2    12   am
     4     3     4    1
     5     3    32    1
     6     3    33    1
     7     4     5    1
     8     5    10   ar
     9     5     6   ar
    10     6     7   ar
    11     6    34    1
    12     7     8   ar
    13     7    35    1
    14     8     9   ar
    15     8    36    1
    16     9    10   ar
    17     9    37    1
    18    10    11    1
    19    12    31    1
    20    12    13    1
    21    13    14    1
    22    13    38    1
    23    13    39    1
    24    14    15    1
    25    14    40    1
    26    14    41    1
    27    15    16    1
    28    15    17    1
    29    15    31    1
    30    17    18   am
    31    17    42    1
    32    18    19    2
    33    18    20    1
    34    20    21    1
    35    20    27    1
    36    20    22    1
    37    22    23    1
    38    22    43    1
    39    22    44    1
    40    23    24    1
    41    23    30    1
    42    23    25    1
    43    25    26    2
    44    25    45    1
    45    26    27    1
    46    26    46    1
    47    27    28    1
    48    27    29    1
    49    29    30    1
    50    29    47    1
    51    29    48    1
    52    30    49    1
    53    30    50    1
    54    31    51    1
    55    31    52    1
@<TRIPOS>SUBSTRUCTURE
     1 ZINC000938043669        1 TEMP              0 ****  ****    0 ROOT


##########                                Name:    ZINC001362587626
##########                DOCK_Rotatable_Bonds:                   9
##########                         Heavy_Atoms:                  25
##########                    Molecular_Weight:             346.346
##########                DOCK_Rotatable_Bonds:                   9
##########                       Formal_Charge:        -4.02331e-07
##########                     HBond_Acceptors:                  10
##########                        HBond_Donors:                   2
##########                         Heavy_Atoms:                  25
##########                          Grid_Score:          -33.372772
##########                     Grid_vdw_energy:          -32.140305
##########                      Grid_es_energy:           -1.232466
##########           Internal_energy_repulsive:            6.444701

@<TRIPOS>MOLECULE
ZINC001362587626
 43 45 1 0 0
SMALL
USER_CHARGES


@<TRIPOS>ATOM
      1 C1          0.5721    3.7009   52.2565 C.3     1  ZINC001362587626   -0.1600
      2 C2         -0.7291    4.0492   51.5309 C.3     1  ZINC001362587626    0.1300
      3 H3         -0.7856    5.1277   51.3838 H       1  ZINC001362587626    0.1200
      4 N4         -1.8705    3.6056   52.3352 N.am    1  ZINC001362587626   -0.7100
      5 C5         -3.0364    4.2795   52.2797 C.2     1  ZINC001362587626    0.5100
      6 O6         -3.1411    5.2521   51.5628 O.2     1  ZINC001362587626   -0.5000
      7 C7         -4.2100    3.8243   53.1084 C.3     1  ZINC001362587626    0.1000
      8 N8         -5.0064    2.8638   52.3407 N.pl3   1  ZINC001362587626   -0.3100
      9 C9         -5.1264    2.8148   51.0010 C.2     1  ZINC001362587626    0.1600
     10 N10        -5.9257    1.8116   50.7312 N.2     1  ZINC001362587626   -0.3000
     11 N11        -6.2782    1.2726   51.8470 N.2     1  ZINC001362587626   -0.0700
     12 N12        -5.7201    1.9025   52.8214 N.2     1  ZINC001362587626   -0.0700
     13 C13        -0.7586    3.3574   50.1925 C.2     1  ZINC001362587626    0.5100
     14 O14        -0.3585    3.9338   49.2030 O.2     1  ZINC001362587626   -0.5200
     15 N15        -1.2294    2.0983   50.0949 N.am    1  ZINC001362587626   -0.6600
     16 C16        -1.2568    1.4552   48.8505 C.ar    1  ZINC001362587626    0.1000
     17 C17        -0.3391    0.4526   48.5664 C.ar    1  ZINC001362587626   -0.1000
     18 C18        -0.3669   -0.1812   47.3399 C.ar    1  ZINC001362587626   -0.1900
     19 C19        -1.3111    0.1839   46.3914 C.ar    1  ZINC001362587626    0.1200
     20 O20        -1.3377   -0.4403   45.1837 O.3     1  ZINC001362587626   -0.2800
     21 C21        -1.1703    0.3801   44.0257 C.3     1  ZINC001362587626    0.0100
     22 C22         0.2924    0.7776   43.7512 C.3     1  ZINC001362587626    0.0200
     23 O23         0.3412   -0.4060   42.9294 O.3     1  ZINC001362587626   -0.3700
     24 C24        -1.0834   -0.4137   42.7084 C.3     1  ZINC001362587626    0.0400
     25 C25        -2.2285    1.1852   46.6746 C.ar    1  ZINC001362587626   -0.1300
     26 C26        -2.2052    1.8161   47.9028 C.ar    1  ZINC001362587626   -0.0800
     27 H27         0.6286    2.6223   52.4037 H       1  ZINC001362587626    0.0700
     28 H28         1.4213    4.0309   51.6581 H       1  ZINC001362587626    0.0800
     29 H29         0.5935    4.2013   53.2246 H       1  ZINC001362587626    0.0800
     30 H30        -1.7871    2.8270   52.9075 H       1  ZINC001362587626    0.4100
     31 H31        -3.8483    3.3496   54.0205 H       1  ZINC001362587626    0.1500
     32 H32        -4.8277    4.6843   53.3666 H       1  ZINC001362587626    0.1400
     33 H33        -4.6559    3.4745   50.2868 H       1  ZINC001362587626    0.2400
     34 H34        -1.5492    1.6374   50.8861 H       1  ZINC001362587626    0.4100
     35 H35         0.3965    0.1688   49.3045 H       1  ZINC001362587626    0.1300
     36 H36         0.3469   -0.9609   47.1188 H       1  ZINC001362587626    0.1400
     37 H37        -1.8694    1.2156   43.9909 H       1  ZINC001362587626    0.0900
     38 H38         0.3992    1.7073   43.1924 H       1  ZINC001362587626    0.1000
     39 H39         0.9346    0.7306   44.6307 H       1  ZINC001362587626    0.1000
     40 H40        -1.5325   -1.4055   42.7607 H       1  ZINC001362587626    0.1000
     41 H41        -1.3967    0.1522   41.8311 H       1  ZINC001362587626    0.1000
     42 H42        -2.9634    1.4688   45.9358 H       1  ZINC001362587626    0.1400
     43 H43        -2.9198    2.5953   48.1233 H       1  ZINC001362587626    0.1500
@<TRIPOS>BOND
     1     1     2    1
     2     1    27    1
     3     1    28    1
     4     1    29    1
     5     2     3    1
     6     2     4    1
     7     2    13    1
     8     4     5   am
     9     4    30    1
    10     5     6    2
    11     5     7    1
    12     7     8    1
    13     7    31    1
    14     7    32    1
    15     8    12    1
    16     8     9    1
    17     9    10    2
    18     9    33    1
    19    10    11    1
    20    11    12    2
    21    13    14    2
    22    13    15   am
    23    15    16    1
    24    15    34    1
    25    16    26   ar
    26    16    17   ar
    27    17    18   ar
    28    17    35    1
    29    18    19   ar
    30    18    36    1
    31    19    20    1
    32    19    25   ar
    33    20    21    1
    34    21    24    1
    35    21    22    1
    36    21    37    1
    37    22    23    1
    38    22    38    1
    39    22    39    1
    40    23    24    1
    41    24    40    1
    42    24    41    1
    43    25    26   ar
    44    25    42    1
    45    26    43    1
@<TRIPOS>SUBSTRUCTURE
     1 ZINC001362587626        1 TEMP              0 ****  ****    0 ROOT


##########                                Name:    ZINC000432833246
##########                DOCK_Rotatable_Bonds:                   5
##########                         Heavy_Atoms:                  25
##########                    Molecular_Weight:             400.318
##########                DOCK_Rotatable_Bonds:                   5
##########                       Formal_Charge:        -3.20375e-07
##########                     HBond_Acceptors:                   4
##########                        HBond_Donors:                   1
##########                         Heavy_Atoms:                  25
##########                          Grid_Score:          -33.352512
##########                     Grid_vdw_energy:          -33.386963
##########                      Grid_es_energy:            0.034452
##########           Internal_energy_repulsive:            6.232507

@<TRIPOS>MOLECULE
ZINC000432833246
 47 51 1 0 0
SMALL
USER_CHARGES


@<TRIPOS>ATOM
      1 O1         -8.3381    3.4355   53.9441 O.2     1  ZINC000432833246   -0.5200
      2 C2         -7.6886    2.8070   53.1354 C.2     1  ZINC000432833246    0.5200
      3 C3         -6.7462    3.4150   52.1201 C.3     1  ZINC000432833246   -0.1500
      4 C4         -5.8807    2.2247   51.6456 C.3     1  ZINC000432833246   -0.1100
      5 H5         -4.9621    2.1539   52.2281 H       1  ZINC000432833246    0.1000
      6 C6         -5.5712    2.3342   50.1513 C.3     1  ZINC000432833246    0.1300
      7 N7         -4.4530    3.2593   49.9507 N.pl3   1  ZINC000432833246   -0.7200
      8 C8         -3.1522    2.7797   49.9259 C.ar    1  ZINC000432833246    0.2800
      9 C9         -2.1680    3.2932   50.8037 C.ar    1  ZINC000432833246   -0.1500
     10 C10        -2.4703    4.3023   51.7286 C.ar    1  ZINC000432833246   -0.0700
     11 C11        -1.4957    4.7708   52.5575 C.ar    1  ZINC000432833246   -0.1300
     12 C12        -0.2014    4.2601   52.4976 C.ar    1  ZINC000432833246   -0.0600
     13 C13         0.1259    3.2794   51.6108 C.ar    1  ZINC000432833246   -0.0800
     14 Br14        1.8912    2.6039   51.5515 Br      1  ZINC000432833246   -0.0300
     15 C15        -0.8543    2.7709   50.7398 C.ar    1  ZINC000432833246    0.1900
     16 N16        -0.5605    1.8075   49.8594 N.ar    1  ZINC000432833246   -0.5000
     17 C17        -1.4649    1.3229   49.0403 C.ar    1  ZINC000432833246    0.2400
     18 C18        -1.0695    0.2380   48.0720 C.3     1  ZINC000432833246   -0.1100
     19 C19         0.2303   -0.5191   48.3517 C.3     1  ZINC000432833246   -0.1700
     20 C20        -1.1184   -1.2072   48.5718 C.3     1  ZINC000432833246   -0.1600
     21 C21        -2.7761    1.7782   49.0445 C.ar    1  ZINC000432833246   -0.2700
     22 C22        -6.8108    1.0251   51.9320 C.3     1  ZINC000432833246    0.1100
     23 N23        -7.6970    1.4682   53.0147 N.am    1  ZINC000432833246   -0.5900
     24 C24        -8.4950    0.5678   53.8506 C.3     1  ZINC000432833246    0.0800
     25 C25        -9.9892    0.4555   53.5413 C.3     1  ZINC000432833246   -0.1900
     26 C26        -9.0475   -0.6998   53.1959 C.3     1  ZINC000432833246   -0.1900
     27 H27        -7.3056    3.8367   51.2850 H       1  ZINC000432833246    0.1100
     28 H28        -6.1231    4.1777   52.5869 H       1  ZINC000432833246    0.1000
     29 H29        -5.3038    1.3515   49.7627 H       1  ZINC000432833246    0.0800
     30 H30        -6.4498    2.7065   49.6245 H       1  ZINC000432833246    0.0700
     31 H31        -4.6227    4.2073   49.8351 H       1  ZINC000432833246    0.4000
     32 H32        -3.4703    4.7064   51.7837 H       1  ZINC000432833246    0.1300
     33 H33        -1.7297    5.5482   53.2698 H       1  ZINC000432833246    0.1400
     34 H34         0.5544    4.6478   53.1644 H       1  ZINC000432833246    0.1400
     35 H35        -1.3325    0.4193   47.0299 H       1  ZINC000432833246    0.1300
     36 H36         0.8228   -0.8360   47.4934 H       1  ZINC000432833246    0.1000
     37 H37         0.7994   -0.2325   49.2360 H       1  ZINC000432833246    0.1000
     38 H38        -1.4366   -1.3733   49.6010 H       1  ZINC000432833246    0.0900
     39 H39        -1.4132   -1.9768   47.8584 H       1  ZINC000432833246    0.1000
     40 H40        -3.4978    1.3597   48.3588 H       1  ZINC000432833246    0.1400
     41 H41        -7.3905    0.7766   51.0429 H       1  ZINC000432833246    0.0800
     42 H42        -6.2265    0.1635   52.2550 H       1  ZINC000432833246    0.0900
     43 H43        -8.1907    0.5030   54.8953 H       1  ZINC000432833246    0.1300
     44 H44       -10.6683    0.3170   54.3825 H       1  ZINC000432833246    0.1000
     45 H45       -10.3785    1.0515   52.7159 H       1  ZINC000432833246    0.1300
     46 H46        -8.8173   -0.8639   52.1432 H       1  ZINC000432833246    0.0900
     47 H47        -9.1071   -1.5984   53.8099 H       1  ZINC000432833246    0.1000
@<TRIPOS>BOND
     1     1     2    2
     2     2    23   am
     3     2     3    1
     4     3     4    1
     5     3    27    1
     6     3    28    1
     7     4     5    1
     8     4     6    1
     9     4    22    1
    10     6     7    1
    11     6    29    1
    12     6    30    1
    13     7     8    1
    14     7    31    1
    15     8    21   ar
    16     8     9   ar
    17     9    15   ar
    18     9    10   ar
    19    10    11   ar
    20    10    32    1
    21    11    12   ar
    22    11    33    1
    23    12    13   ar
    24    12    34    1
    25    13    14    1
    26    13    15   ar
    27    15    16   ar
    28    16    17   ar
    29    17    18    1
    30    17    21   ar
    31    18    20    1
    32    18    19    1
    33    18    35    1
    34    19    20    1
    35    19    36    1
    36    19    37    1
    37    20    38    1
    38    20    39    1
    39    21    40    1
    40    22    23    1
    41    22    41    1
    42    22    42    1
    43    23    24    1
    44    24    26    1
    45    24    25    1
    46    24    43    1
    47    25    26    1
    48    25    44    1
    49    25    45    1
    50    26    46    1
    51    26    47    1
@<TRIPOS>SUBSTRUCTURE
     1 ZINC000432833246        1 TEMP              0 ****  ****    0 ROOT


##########                                Name:    ZINC000279331220
##########                DOCK_Rotatable_Bonds:                   9
##########                         Heavy_Atoms:                  24
##########                    Molecular_Weight:             328.411
##########                DOCK_Rotatable_Bonds:                   9
##########                       Formal_Charge:          -0.0100001
##########                     HBond_Acceptors:                   5
##########                        HBond_Donors:                   0
##########                         Heavy_Atoms:                  24
##########                          Grid_Score:          -33.319363
##########                     Grid_vdw_energy:          -31.697119
##########                      Grid_es_energy:           -1.622245
##########           Internal_energy_repulsive:           17.504374

@<TRIPOS>MOLECULE
ZINC000279331220
 48 49 1 0 0
SMALL
USER_CHARGES


@<TRIPOS>ATOM
      1 C1         -6.4013    1.0403   52.8036 C.3     1  ZINC000279331220   -0.1500
      2 C2         -6.4511    0.4302   51.4014 C.3     1  ZINC000279331220    0.0500
      3 O3         -5.7089    1.2518   50.4979 O.3     1  ZINC000279331220   -0.3000
      4 C4         -5.8925    2.5959   50.5927 C.ar    1  ZINC000279331220    0.1000
      5 C5         -7.1638    3.1330   50.4727 C.ar    1  ZINC000279331220   -0.1700
      6 C6         -7.3489    4.4999   50.5698 C.ar    1  ZINC000279331220   -0.1200
      7 C7         -6.2675    5.3331   50.7861 C.ar    1  ZINC000279331220   -0.1200
      8 C8         -4.9958    4.8035   50.9063 C.ar    1  ZINC000279331220   -0.1700
      9 C9         -4.8043    3.4345   50.8163 C.ar    1  ZINC000279331220    0.1000
     10 O10        -3.5543    2.9122   50.9344 O.3     1  ZINC000279331220   -0.3000
     11 C11        -2.6218    3.2198   49.8962 C.3     1  ZINC000279331220    0.0600
     12 C12        -1.2685    2.5845   50.2213 C.3     1  ZINC000279331220   -0.1100
     13 C13        -1.1782    1.2090   49.5576 C.3     1  ZINC000279331220   -0.1300
     14 C14        -0.6851    1.3655   48.1422 C.2     1  ZINC000279331220    0.5200
     15 O15        -0.5166    2.4730   47.6778 O.2     1  ZINC000279331220   -0.5200
     16 N16        -0.4312    0.2747   47.3924 N.am    1  ZINC000279331220   -0.5700
     17 C17        -0.6365   -1.0632   47.9529 C.3     1  ZINC000279331220    0.0800
     18 C18         0.0265    0.4195   46.0836 C.ar    1  ZINC000279331220    0.3400
     19 N19        -0.8438    0.5042   45.0902 N.ar    1  ZINC000279331220   -0.4800
     20 C20        -0.4530    0.6418   43.8376 C.ar    1  ZINC000279331220    0.1100
     21 C21         0.8887    0.7028   43.5172 C.ar    1  ZINC000279331220   -0.1600
     22 C22         1.8340    0.6176   44.5305 C.ar    1  ZINC000279331220   -0.0700
     23 C23         1.3932    0.4794   45.8347 C.ar    1  ZINC000279331220   -0.1200
     24 C24         2.3810    0.3834   46.9687 C.3     1  ZINC000279331220   -0.1100
     25 H25        -6.9674    0.4136   53.4927 H       1  ZINC000279331220    0.0800
     26 H26        -5.3651    1.1021   53.1363 H       1  ZINC000279331220    0.0700
     27 H27        -6.8358    2.0397   52.7807 H       1  ZINC000279331220    0.0700
     28 H28        -6.0166   -0.5691   51.4242 H       1  ZINC000279331220    0.0600
     29 H29        -7.4873    0.3684   51.0686 H       1  ZINC000279331220    0.0600
     30 H30        -8.0103    2.4841   50.3030 H       1  ZINC000279331220    0.1300
     31 H31        -8.3405    4.9174   50.4760 H       1  ZINC000279331220    0.1300
     32 H32        -6.4162    6.4003   50.8610 H       1  ZINC000279331220    0.1300
     33 H33        -4.1525    5.4569   51.0747 H       1  ZINC000279331220    0.1300
     34 H34        -2.9899    2.8261   48.9488 H       1  ZINC000279331220    0.0600
     35 H35        -2.5066    4.3011   49.8201 H       1  ZINC000279331220    0.0600
     36 H36        -0.4681    3.2222   49.8461 H       1  ZINC000279331220    0.0800
     37 H37        -1.1690    2.4740   51.3011 H       1  ZINC000279331220    0.0800
     38 H38        -0.4848    0.5806   50.1166 H       1  ZINC000279331220    0.1000
     39 H39        -2.1641    0.7440   49.5495 H       1  ZINC000279331220    0.1000
     40 H40        -1.6816   -1.3498   47.8358 H       1  ZINC000279331220    0.0700
     41 H41        -0.0028   -1.7782   47.4280 H       1  ZINC000279331220    0.0800
     42 H42        -0.3778   -1.0573   49.0117 H       1  ZINC000279331220    0.0800
     43 H43        -1.1919    0.7071   43.0528 H       1  ZINC000279331220    0.1600
     44 H44         1.1995    0.8152   42.4890 H       1  ZINC000279331220    0.1400
     45 H45         2.8895    0.6628   44.3062 H       1  ZINC000279331220    0.1400
     46 H46         2.5325    1.3715   47.4032 H       1  ZINC000279331220    0.0800
     47 H47         1.9946   -0.2933   47.7308 H       1  ZINC000279331220    0.0700
     48 H48         3.3304    0.0026   46.5922 H       1  ZINC000279331220    0.0700
@<TRIPOS>BOND
     1     1     2    1
     2     1    25    1
     3     1    26    1
     4     1    27    1
     5     2     3    1
     6     2    28    1
     7     2    29    1
     8     3     4    1
     9     4     9   ar
    10     4     5   ar
    11     5     6   ar
    12     5    30    1
    13     6     7   ar
    14     6    31    1
    15     7     8   ar
    16     7    32    1
    17     8     9   ar
    18     8    33    1
    19     9    10    1
    20    10    11    1
    21    11    12    1
    22    11    34    1
    23    11    35    1
    24    12    13    1
    25    12    36    1
    26    12    37    1
    27    13    14    1
    28    13    38    1
    29    13    39    1
    30    14    15    2
    31    14    16   am
    32    16    17    1
    33    16    18    1
    34    17    40    1
    35    17    41    1
    36    17    42    1
    37    18    23   ar
    38    18    19   ar
    39    19    20   ar
    40    20    21   ar
    41    20    43    1
    42    21    22   ar
    43    21    44    1
    44    22    23   ar
    45    22    45    1
    46    23    24    1
    47    24    46    1
    48    24    47    1
    49    24    48    1
@<TRIPOS>SUBSTRUCTURE
     1 ZINC000279331220        1 TEMP              0 ****  ****    0 ROOT


##########                                Name:    ZINC000420486261
##########                DOCK_Rotatable_Bonds:                   7
##########                         Heavy_Atoms:                  26
##########                    Molecular_Weight:             353.378
##########                DOCK_Rotatable_Bonds:                   7
##########                       Formal_Charge:        -2.98023e-08
##########                     HBond_Acceptors:                   7
##########                        HBond_Donors:                   0
##########                         Heavy_Atoms:                  26
##########                          Grid_Score:          -33.283749
##########                     Grid_vdw_energy:          -31.615767
##########                      Grid_es_energy:           -1.667981
##########           Internal_energy_repulsive:            5.102321

@<TRIPOS>MOLECULE
ZINC000420486261
 45 47 1 0 0
SMALL
USER_CHARGES


@<TRIPOS>ATOM
      1 C1         -1.0795   -0.0743   42.9144 C.3     1  ZINC000420486261    0.0400
      2 O2         -1.3645    0.1037   44.3270 O.3     1  ZINC000420486261   -0.3500
      3 C3         -0.3842    0.6277   45.0872 C.2     1  ZINC000420486261    0.5100
      4 O4          0.6399    1.0240   44.5690 O.2     1  ZINC000420486261   -0.4900
      5 C5         -0.5551    0.7205   46.5549 C.ar    1  ZINC000420486261   -0.0700
      6 C6          0.4908    0.3879   47.4221 C.ar    1  ZINC000420486261   -0.0900
      7 C7          0.2931    0.4879   48.7882 C.ar    1  ZINC000420486261    0.1100
      8 N8         -0.8592    0.8889   49.2795 N.ar    1  ZINC000420486261   -0.4200
      9 C9         -1.8807    1.2155   48.4973 C.ar    1  ZINC000420486261    0.1900
     10 C10        -3.1548    1.6610   49.1043 C.2     1  ZINC000420486261    0.2200
     11 N11        -3.7524    1.1310   50.1537 N.2     1  ZINC000420486261   -0.4300
     12 C12        -4.8724    1.8611   50.3385 C.2     1  ZINC000420486261    0.2200
     13 C13        -5.8880    1.6588   51.4005 C.ar    1  ZINC000420486261   -0.0600
     14 C14        -6.6841    0.5160   51.3985 C.ar    1  ZINC000420486261   -0.0300
     15 C15        -7.6276    0.3322   52.3889 C.ar    1  ZINC000420486261   -0.1600
     16 C16        -7.7862    1.2796   53.3849 C.ar    1  ZINC000420486261   -0.0600
     17 C17        -7.0018    2.4171   53.3966 C.ar    1  ZINC000420486261   -0.2200
     18 C18        -6.0464    2.6118   52.4115 C.ar    1  ZINC000420486261    0.1700
     19 O19        -5.2747    3.7292   52.4219 O.3     1  ZINC000420486261   -0.2900
     20 C20        -4.6674    4.0866   53.6650 C.3     1  ZINC000420486261    0.0600
     21 C21        -3.5673    5.1205   53.4164 C.3     1  ZINC000420486261   -0.0900
     22 C22        -3.0569    5.6543   54.7564 C.3     1  ZINC000420486261   -0.1500
     23 C23        -2.4132    4.4643   52.6559 C.3     1  ZINC000420486261   -0.1500
     24 N24        -4.8967    2.7810   49.4075 N.2     1  ZINC000420486261   -0.3400
     25 O25        -3.9196    2.6849   48.6955 O.3     1  ZINC000420486261    0.1000
     26 C26        -1.7638    1.1484   47.1105 C.ar    1  ZINC000420486261   -0.0700
     27 H27        -1.9505   -0.5034   42.4192 H       1  ZINC000420486261    0.1100
     28 H28        -0.8460    0.8916   42.4663 H       1  ZINC000420486261    0.0700
     29 H29        -0.2280   -0.7445   42.7971 H       1  ZINC000420486261    0.0700
     30 H30         1.4412    0.0566   47.0303 H       1  ZINC000420486261    0.1600
     31 H31         1.0978    0.2321   49.4618 H       1  ZINC000420486261    0.1800
     32 H32        -6.5635   -0.2255   50.6226 H       1  ZINC000420486261    0.1400
     33 H33        -8.2448   -0.5541   52.3862 H       1  ZINC000420486261    0.1300
     34 H34        -8.5268    1.1295   54.1565 H       1  ZINC000420486261    0.1300
     35 H35        -7.1301    3.1530   54.1765 H       1  ZINC000420486261    0.1400
     36 H36        -5.4209    4.5103   54.3289 H       1  ZINC000420486261    0.0600
     37 H37        -4.2344    3.1990   54.1262 H       1  ZINC000420486261    0.0600
     38 H38        -3.9694    5.9442   52.8265 H       1  ZINC000420486261    0.0800
     39 H39        -2.6548    4.8306   55.3462 H       1  ZINC000420486261    0.0600
     40 H40        -2.2732    6.3909   54.5793 H       1  ZINC000420486261    0.0700
     41 H41        -3.8791    6.1218   55.2982 H       1  ZINC000420486261    0.0600
     42 H42        -2.0111    3.6406   53.2458 H       1  ZINC000420486261    0.0500
     43 H43        -2.7768    4.0840   51.7013 H       1  ZINC000420486261    0.0600
     44 H44        -1.6294    5.2009   52.4788 H       1  ZINC000420486261    0.0600
     45 H45        -2.5960    1.4149   46.4759 H       1  ZINC000420486261    0.1600
@<TRIPOS>BOND
     1     1     2    1
     2     1    27    1
     3     1    28    1
     4     1    29    1
     5     2     3    1
     6     3     4    2
     7     3     5    1
     8     5    26   ar
     9     5     6   ar
    10     6     7   ar
    11     6    30    1
    12     7     8   ar
    13     7    31    1
    14     8     9   ar
    15     9    10    1
    16     9    26   ar
    17    10    25    1
    18    10    11    2
    19    11    12    1
    20    12    13    1
    21    12    24    2
    22    13    18   ar
    23    13    14   ar
    24    14    15   ar
    25    14    32    1
    26    15    16   ar
    27    15    33    1
    28    16    17   ar
    29    16    34    1
    30    17    18   ar
    31    17    35    1
    32    18    19    1
    33    19    20    1
    34    20    21    1
    35    20    36    1
    36    20    37    1
    37    21    22    1
    38    21    23    1
    39    21    38    1
    40    22    39    1
    41    22    40    1
    42    22    41    1
    43    23    42    1
    44    23    43    1
    45    23    44    1
    46    24    25    1
    47    26    45    1
@<TRIPOS>SUBSTRUCTURE
     1 ZINC000420486261        1 TEMP              0 ****  ****    0 ROOT


##########                                Name:    ZINC001570985666
##########                DOCK_Rotatable_Bonds:                   7
##########                         Heavy_Atoms:                  26
##########                    Molecular_Weight:             357.415
##########                DOCK_Rotatable_Bonds:                   7
##########                       Formal_Charge:          -0.0100001
##########                     HBond_Acceptors:                   9
##########                        HBond_Donors:                   3
##########                         Heavy_Atoms:                  26
##########                          Grid_Score:          -33.263008
##########                     Grid_vdw_energy:          -29.226969
##########                      Grid_es_energy:           -4.036038
##########           Internal_energy_repulsive:            9.846839

@<TRIPOS>MOLECULE
ZINC001570985666
 49 52 1 0 0
SMALL
USER_CHARGES


@<TRIPOS>ATOM
      1 C1         -5.2790    3.4654   50.7125 C.3     1  ZINC001570985666   -0.1600
      2 C2         -4.1296    3.1332   51.6663 C.3     1  ZINC001570985666    0.1300
      3 H3         -4.3391    2.1995   52.1880 H       1  ZINC001570985666    0.0800
      4 C4         -3.9483    4.2759   52.6877 C.3     1  ZINC001570985666    0.1400
      5 H5         -4.3526    5.2099   52.2972 H       1  ZINC001570985666    0.1100
      6 N6         -4.5791    3.9342   53.9650 N.am    1  ZINC001570985666   -0.7200
      7 C7         -4.6028    4.8350   54.9671 C.2     1  ZINC001570985666    0.6000
      8 O8         -4.0994    5.9312   54.8116 O.2     1  ZINC001570985666   -0.5300
      9 C9         -5.2386    4.4920   56.2510 C.2     1  ZINC001570985666   -0.2300
     10 C10        -5.3864    5.3225   57.3409 C.2     1  ZINC001570985666    0.0700
     11 N11        -6.0183    4.6349   58.3129 N.pl3   1  ZINC001570985666   -0.5200
     12 C12        -6.2848    3.3634   57.8685 C.2     1  ZINC001570985666    0.0600
     13 C13        -6.9677    2.3022   58.6418 C.2     1  ZINC001570985666    0.2500
     14 N14        -7.1882    1.0607   58.2526 N.2     1  ZINC001570985666   -0.3100
     15 N15        -7.8074    0.4532   59.2057 N.pl3   1  ZINC001570985666   -0.2200
     16 N16        -7.9865    1.2683   60.1857 N.2     1  ZINC001570985666   -0.0400
     17 N17        -7.4783    2.4130   59.8777 N.2     1  ZINC001570985666   -0.2600
     18 C18        -5.8212    3.2457   56.5986 C.2     1  ZINC001570985666   -0.0600
     19 C19        -2.4068    4.3656   52.8388 C.3     1  ZINC001570985666   -0.1500
     20 C20        -1.9340    4.0457   51.3987 C.3     1  ZINC001570985666    0.1000
     21 N21        -2.8731    3.0138   50.9125 N.am    1  ZINC001570985666   -0.6200
     22 C22        -2.6188    2.1161   49.9399 C.2     1  ZINC001570985666    0.5300
     23 O23        -3.4684    1.3119   49.6199 O.2     1  ZINC001570985666   -0.5300
     24 C24        -1.2791    2.1116   49.2501 C.3     1  ZINC001570985666   -0.1300
     25 C25        -1.3025    1.1063   48.0969 C.3     1  ZINC001570985666   -0.1000
     26 C26        -1.9332    1.6611   46.8087 C.3     1  ZINC001570985666   -0.1300
     27 C27        -0.8235    0.9231   46.0412 C.3     1  ZINC001570985666   -0.1400
     28 C28         0.0228    1.0279   47.3209 C.3     1  ZINC001570985666   -0.1400
     29 H29        -5.3975    2.6570   49.9910 H       1  ZINC001570985666    0.0700
     30 H30        -6.2011    3.5824   51.2817 H       1  ZINC001570985666    0.0700
     31 H31        -5.0571    4.3933   50.1854 H       1  ZINC001570985666    0.0600
     32 H32        -4.9796    3.0595   54.0895 H       1  ZINC001570985666    0.4000
     33 H33        -5.0527    6.3476   57.4054 H       1  ZINC001570985666    0.1800
     34 H34        -6.2482    4.9834   59.1884 H       1  ZINC001570985666    0.4300
     35 H35        -8.0940   -0.4734   59.1873 H       1  ZINC001570985666    0.4800
     36 H36        -5.8787    2.3671   55.9730 H       1  ZINC001570985666    0.1600
     37 H37        -2.1012    5.3686   53.1367 H       1  ZINC001570985666    0.0900
     38 H38        -2.0395    3.6210   53.5451 H       1  ZINC001570985666    0.0800
     39 H39        -1.9912    4.9369   50.7739 H       1  ZINC001570985666    0.0800
     40 H40        -0.9166    3.6549   51.4115 H       1  ZINC001570985666    0.0800
     41 H41        -1.0680    3.1072   48.8598 H       1  ZINC001570985666    0.0900
     42 H42        -0.5044    1.8289   49.9628 H       1  ZINC001570985666    0.0900
     43 H43        -1.6939    0.1327   48.3921 H       1  ZINC001570985666    0.1000
     44 H44        -2.9328    1.2744   46.6103 H       1  ZINC001570985666    0.0700
     45 H45        -1.8739    2.7463   46.7259 H       1  ZINC001570985666    0.0800
     46 H46        -1.0848   -0.1006   45.7731 H       1  ZINC001570985666    0.0800
     47 H47        -0.4201    1.4915   45.2032 H       1  ZINC001570985666    0.0700
     48 H48         0.6169    1.9401   47.3780 H       1  ZINC001570985666    0.0800
     49 H49         0.6022    0.1301   47.5359 H       1  ZINC001570985666    0.0700
@<TRIPOS>BOND
     1     1     2    1
     2     1    29    1
     3     1    30    1
     4     1    31    1
     5     2     3    1
     6     2    21    1
     7     2     4    1
     8     4     5    1
     9     4     6    1
    10     4    19    1
    11     6     7   am
    12     6    32    1
    13     7     8    2
    14     7     9    1
    15     9    18    1
    16     9    10    2
    17    10    11    1
    18    10    33    1
    19    11    12    1
    20    11    34    1
    21    12    13    1
    22    12    18    2
    23    13    17    1
    24    13    14    2
    25    14    15    1
    26    15    16    1
    27    15    35    1
    28    16    17    2
    29    18    36    1
    30    19    20    1
    31    19    37    1
    32    19    38    1
    33    20    21    1
    34    20    39    1
    35    20    40    1
    36    21    22   am
    37    22    23    2
    38    22    24    1
    39    24    25    1
    40    24    41    1
    41    24    42    1
    42    25    28    1
    43    25    26    1
    44    25    43    1
    45    26    27    1
    46    26    44    1
    47    26    45    1
    48    27    28    1
    49    27    46    1
    50    27    47    1
    51    28    48    1
    52    28    49    1
@<TRIPOS>SUBSTRUCTURE
     1 ZINC001570985666        1 TEMP              0 ****  ****    0 ROOT


##########                                Name:    ZINC000062882109
##########                DOCK_Rotatable_Bonds:                   8
##########                         Heavy_Atoms:                  31
##########                    Molecular_Weight:             424.497
##########                DOCK_Rotatable_Bonds:                   8
##########                       Formal_Charge:           0.0299993
##########                     HBond_Acceptors:                   7
##########                        HBond_Donors:                   1
##########                         Heavy_Atoms:                  31
##########                          Grid_Score:          -33.250340
##########                     Grid_vdw_energy:          -31.526194
##########                      Grid_es_energy:           -1.724147
##########           Internal_energy_repulsive:          190.665695

@<TRIPOS>MOLECULE
ZINC000062882109
 59 61 1 0 0
SMALL
USER_CHARGES


@<TRIPOS>ATOM
      1 C1        -12.2070    6.5640   47.3290 C.3     1  ZINC000062882109   -0.2000
      2 C2        -10.7526    6.4207   47.6965 C.2     1  ZINC000062882109    0.3900
      3 O3         -9.9247    7.1473   47.1896 O.2     1  ZINC000062882109   -0.4500
      4 C4        -10.3369    5.3988   48.6708 C.ar    1  ZINC000062882109   -0.1300
      5 C5        -11.2894    4.5601   49.2582 C.ar    1  ZINC000062882109   -0.1100
      6 C6        -10.8951    3.6040   50.1708 C.ar    1  ZINC000062882109   -0.0900
      7 C7         -9.5604    3.4711   50.5077 C.ar    1  ZINC000062882109   -0.1800
      8 C8         -8.6064    4.2992   49.9304 C.ar    1  ZINC000062882109    0.1200
      9 O9         -7.2964    4.1630   50.2662 O.3     1  ZINC000062882109   -0.2800
     10 C10        -6.9952    3.3052   51.3686 C.3     1  ZINC000062882109    0.0700
     11 H11        -7.5538    2.3746   51.2682 H       1  ZINC000062882109    0.1000
     12 C12        -7.3879    3.9973   52.6754 C.3     1  ZINC000062882109   -0.1800
     13 C13        -5.5183    3.0056   51.3830 C.2     1  ZINC000062882109    0.5200
     14 O14        -5.1226    1.9238   51.7626 O.2     1  ZINC000062882109   -0.4900
     15 N15        -4.6372    3.9400   50.9742 N.am    1  ZINC000062882109   -0.6600
     16 C16        -3.2642    3.6616   50.9875 C.ar    1  ZINC000062882109    0.1400
     17 C17        -2.5333    3.8245   52.1565 C.ar    1  ZINC000062882109   -0.1000
     18 C18        -1.1787    3.5526   52.1734 C.ar    1  ZINC000062882109   -0.1100
     19 C19        -0.5417    3.1155   51.0216 C.ar    1  ZINC000062882109    0.0800
     20 O20         0.7936    2.8596   51.0488 O.3     1  ZINC000062882109   -0.3100
     21 C21         1.3312    2.0178   50.0261 C.3     1  ZINC000062882109    0.0500
     22 C22         0.8402    2.5217   48.6615 C.3     1  ZINC000062882109    0.0400
     23 N23        -0.6323    2.5006   48.6828 N.am    1  ZINC000062882109   -0.5500
     24 C24        -1.3390    2.0663   47.6204 C.2     1  ZINC000062882109    0.5300
     25 O25        -2.5512    2.0580   47.6607 O.2     1  ZINC000062882109   -0.5100
     26 C26        -0.6228    1.5912   46.3825 C.3     1  ZINC000062882109   -0.0800
     27 C27        -1.6446    1.3065   45.2798 C.3     1  ZINC000062882109   -0.1300
     28 C28         0.3501    2.6731   45.9092 C.3     1  ZINC000062882109   -0.1600
     29 C29         0.1532    0.3117   46.7015 C.3     1  ZINC000062882109   -0.1500
     30 C30        -1.2753    2.9485   49.8496 C.ar    1  ZINC000062882109    0.1000
     31 C31        -2.6337    3.2170   49.8329 C.ar    1  ZINC000062882109   -0.1400
     32 C32        -8.9877    5.2586   49.0087 C.ar    1  ZINC000062882109   -0.0900
     33 H33       -12.3201    7.3660   46.5995 H       1  ZINC000062882109    0.0900
     34 H34       -12.5672    5.6291   46.8998 H       1  ZINC000062882109    0.1000
     35 H35       -12.7857    6.8007   48.2219 H       1  ZINC000062882109    0.1000
     36 H36       -12.3326    4.6613   48.9979 H       1  ZINC000062882109    0.1400
     37 H37       -11.6314    2.9569   50.6243 H       1  ZINC000062882109    0.1300
     38 H38        -9.2586    2.7203   51.2229 H       1  ZINC000062882109    0.1300
     39 H39        -8.4562    4.2139   52.6650 H       1  ZINC000062882109    0.0800
     40 H40        -7.1582    3.3429   53.5164 H       1  ZINC000062882109    0.0800
     41 H41        -6.8294    4.9278   52.7760 H       1  ZINC000062882109    0.0800
     42 H42        -4.9537    4.8052   50.6706 H       1  ZINC000062882109    0.4100
     43 H43        -3.0251    4.1650   53.0557 H       1  ZINC000062882109    0.1400
     44 H44        -0.6145    3.6812   53.0853 H       1  ZINC000062882109    0.1400
     45 H45         2.4201    2.0536   50.0586 H       1  ZINC000062882109    0.1300
     46 H46         0.9927    0.9934   50.1807 H       1  ZINC000062882109    0.0700
     47 H47         1.1932    3.5393   48.4941 H       1  ZINC000062882109    0.0900
     48 H48         1.2082    1.8671   47.8713 H       1  ZINC000062882109    0.1300
     49 H49        -2.1973    2.2180   45.0525 H       1  ZINC000062882109    0.0600
     50 H50        -1.1265    0.9628   44.3844 H       1  ZINC000062882109    0.0700
     51 H51        -2.3376    0.5357   45.6169 H       1  ZINC000062882109    0.0700
     52 H52         1.0780    2.8759   46.6947 H       1  ZINC000062882109    0.0700
     53 H53         0.8680    2.3295   45.0138 H       1  ZINC000062882109    0.0800
     54 H54        -0.2027    3.5845   45.6819 H       1  ZINC000062882109    0.0600
     55 H55        -0.5468   -0.5113   46.8457 H       1  ZINC000062882109    0.0700
     56 H56         0.8237    0.0778   45.8747 H       1  ZINC000062882109    0.0800
     57 H57         0.7353    0.4573   47.6115 H       1  ZINC000062882109    0.0700
     58 H58        -3.2004    3.0853   48.9230 H       1  ZINC000062882109    0.1800
     59 H59        -8.2466    5.9027   48.5590 H       1  ZINC000062882109    0.1400
@<TRIPOS>BOND
     1     1     2    1
     2     1    33    1
     3     1    34    1
     4     1    35    1
     5     2     3    2
     6     2     4    1
     7     4    32   ar
     8     4     5   ar
     9     5     6   ar
    10     5    36    1
    11     6     7   ar
    12     6    37    1
    13     7     8   ar
    14     7    38    1
    15     8     9    1
    16     8    32   ar
    17     9    10    1
    18    10    11    1
    19    10    12    1
    20    10    13    1
    21    12    39    1
    22    12    40    1
    23    12    41    1
    24    13    14    2
    25    13    15   am
    26    15    16    1
    27    15    42    1
    28    16    31   ar
    29    16    17   ar
    30    17    18   ar
    31    17    43    1
    32    18    19   ar
    33    18    44    1
    34    19    30   ar
    35    19    20    1
    36    20    21    1
    37    21    22    1
    38    21    45    1
    39    21    46    1
    40    22    23    1
    41    22    47    1
    42    22    48    1
    43    23    24   am
    44    23    30    1
    45    24    25    2
    46    24    26    1
    47    26    27    1
    48    26    28    1
    49    26    29    1
    50    27    49    1
    51    27    50    1
    52    27    51    1
    53    28    52    1
    54    28    53    1
    55    28    54    1
    56    29    55    1
    57    29    56    1
    58    29    57    1
    59    30    31   ar
    60    31    58    1
    61    32    59    1
@<TRIPOS>SUBSTRUCTURE
     1 ZINC000062882109        1 TEMP              0 ****  ****    0 ROOT


##########                                Name:    ZINC001217683559
##########                DOCK_Rotatable_Bonds:                   3
##########                         Heavy_Atoms:                  25
##########                    Molecular_Weight:             397.234
##########                DOCK_Rotatable_Bonds:                   3
##########                       Formal_Charge:          0.00999987
##########                     HBond_Acceptors:                   7
##########                        HBond_Donors:                   0
##########                         Heavy_Atoms:                  25
##########                          Grid_Score:          -33.215958
##########                     Grid_vdw_energy:          -31.824835
##########                      Grid_es_energy:           -1.391124
##########           Internal_energy_repulsive:           32.258720

@<TRIPOS>MOLECULE
ZINC001217683559
 38 42 1 0 0
SMALL
USER_CHARGES


@<TRIPOS>ATOM
      1 Br1         3.5610    0.4260   44.7075 Br      1  ZINC001217683559    0.0100
      2 C2          3.2397    0.2221   42.8551 C.ar    1  ZINC001217683559   -0.1200
      3 C3          4.2954    0.0579   41.9725 C.ar    1  ZINC001217683559   -0.0500
      4 C4          4.0126   -0.0880   40.6226 C.ar    1  ZINC001217683559   -0.1500
      5 C5          2.6959   -0.0656   40.1991 C.ar    1  ZINC001217683559    0.1200
      6 N6          1.7112    0.0923   41.0594 N.ar    1  ZINC001217683559   -0.4400
      7 C7          1.9377    0.2289   42.3587 C.ar    1  ZINC001217683559    0.2200
      8 C8          0.7954    0.4045   43.2909 C.2     1  ZINC001217683559    0.2100
      9 N9         -0.4711    0.4413   42.9658 N.2     1  ZINC001217683559   -0.3300
     10 O10        -1.1561    0.5962   43.9545 O.3     1  ZINC001217683559    0.1000
     11 C11        -0.3754    0.6764   45.0435 C.2     1  ZINC001217683559    0.2300
     12 C12        -0.8260    0.8643   46.4378 C.2     1  ZINC001217683559   -0.0600
     13 C13        -2.0785    1.3470   46.6928 C.2     1  ZINC001217683559    0.1800
     14 N14        -2.5001    1.5226   47.9697 N.pl3   1  ZINC001217683559   -0.2900
     15 N15        -3.7000    1.9889   48.5259 N.2     1  ZINC001217683559   -0.3300
     16 C16        -3.5609    1.9504   49.8299 C.2     1  ZINC001217683559    0.2800
     17 C17        -4.6120    2.3637   50.8276 C.3     1  ZINC001217683559   -0.0300
     18 C18        -4.7742    3.8876   50.9558 C.3     1  ZINC001217683559   -0.1200
     19 C19        -6.2895    3.6401   51.0423 C.3     1  ZINC001217683559   -0.1400
     20 C20        -6.0419    2.3381   50.2621 C.3     1  ZINC001217683559   -0.1200
     21 N21        -2.3555    1.4916   50.1364 N.2     1  ZINC001217683559   -0.5300
     22 C22        -1.6832    1.2213   49.0237 C.2     1  ZINC001217683559    0.2900
     23 C23        -0.3874    0.7219   48.7887 C.2     1  ZINC001217683559   -0.1000
     24 C24         0.0367    0.5393   47.5111 C.2     1  ZINC001217683559   -0.0200
     25 N25         0.8722    0.5496   44.6302 N.2     1  ZINC001217683559   -0.4300
     26 H26         5.3152    0.0443   42.3279 H       1  ZINC001217683559    0.1600
     27 H27         4.8127   -0.2173   39.9088 H       1  ZINC001217683559    0.1500
     28 H28         2.4723   -0.1789   39.1486 H       1  ZINC001217683559    0.1800
     29 H29        -2.7369    1.5906   45.8721 H       1  ZINC001217683559    0.1900
     30 H30        -4.5118    1.8519   51.7846 H       1  ZINC001217683559    0.1200
     31 H31        -4.3457    4.2968   51.8707 H       1  ZINC001217683559    0.0700
     32 H32        -4.4716    4.4355   50.0635 H       1  ZINC001217683559    0.1000
     33 H33        -6.6482    3.4784   52.0589 H       1  ZINC001217683559    0.0800
     34 H34        -6.8834    4.3714   50.4942 H       1  ZINC001217683559    0.0800
     35 H35        -6.0859    2.4625   49.1801 H       1  ZINC001217683559    0.0900
     36 H36        -6.6368    1.4966   50.6170 H       1  ZINC001217683559    0.0700
     37 H37         0.2624    0.4823   49.6174 H       1  ZINC001217683559    0.1700
     38 H38         1.0278    0.1572   47.3160 H       1  ZINC001217683559    0.1700
@<TRIPOS>BOND
     1     1     2    1
     2     2     7   ar
     3     2     3   ar
     4     3     4   ar
     5     3    26    1
     6     4     5   ar
     7     4    27    1
     8     5     6   ar
     9     5    28    1
    10     6     7   ar
    11     7     8    1
    12     8    25    1
    13     8     9    2
    14     9    10    1
    15    10    11    1
    16    11    12    1
    17    11    25    2
    18    12    24    1
    19    12    13    2
    20    13    14    1
    21    13    29    1
    22    14    22    1
    23    14    15    1
    24    15    16    2
    25    16    17    1
    26    16    21    1
    27    17    20    1
    28    17    18    1
    29    17    30    1
    30    18    19    1
    31    18    31    1
    32    18    32    1
    33    19    20    1
    34    19    33    1
    35    19    34    1
    36    20    35    1
    37    20    36    1
    38    21    22    2
    39    22    23    1
    40    23    24    2
    41    23    37    1
    42    24    38    1
@<TRIPOS>SUBSTRUCTURE
     1 ZINC001217683559        1 TEMP              0 ****  ****    0 ROOT


##########                                Name:    ZINC001347442583
##########                DOCK_Rotatable_Bonds:                   9
##########                         Heavy_Atoms:                  27
##########                    Molecular_Weight:             370.492
##########                DOCK_Rotatable_Bonds:                   9
##########                       Formal_Charge:          -0.0400009
##########                     HBond_Acceptors:                   5
##########                        HBond_Donors:                   1
##########                         Heavy_Atoms:                  27
##########                          Grid_Score:          -33.213539
##########                     Grid_vdw_energy:          -33.563740
##########                      Grid_es_energy:            0.350199
##########           Internal_energy_repulsive:           16.409311

@<TRIPOS>MOLECULE
ZINC001347442583
 57 60 1 0 0
SMALL
USER_CHARGES


@<TRIPOS>ATOM
      1 O1         -3.3797    2.1475   47.5236 O.2     1  ZINC001347442583   -0.5400
      2 C2         -2.7644    1.7060   48.4709 C.2     1  ZINC001347442583    0.5400
      3 C3         -3.2327    1.9942   49.8740 C.3     1  ZINC001347442583   -0.1400
      4 C4         -4.6240    2.6292   49.8270 C.3     1  ZINC001347442583   -0.1000
      5 C5         -5.0487    3.0322   51.2405 C.3     1  ZINC001347442583   -0.1100
      6 C6         -6.5709    3.1784   51.2934 C.3     1  ZINC001347442583   -0.0800
      7 C7         -7.1793    1.9071   51.8268 C.ar    1  ZINC001347442583   -0.0800
      8 C8         -8.3710    1.9513   52.5259 C.ar    1  ZINC001347442583   -0.1200
      9 C9         -8.9290    0.7851   53.0151 C.ar    1  ZINC001347442583   -0.1200
     10 C10        -8.2957   -0.4255   52.8048 C.ar    1  ZINC001347442583   -0.1300
     11 C11        -7.1046   -0.4699   52.1048 C.ar    1  ZINC001347442583   -0.1200
     12 C12        -6.5487    0.6959   51.6118 C.ar    1  ZINC001347442583   -0.1200
     13 N13        -1.6650    0.9529   48.2688 N.am    1  ZINC001347442583   -0.6300
     14 C14        -0.9913    0.5192   46.9980 C.3     1  ZINC001347442583    0.1200
     15 H15        -1.4587    0.8566   46.0731 H       1  ZINC001347442583    0.1200
     16 C16        -0.9381   -1.0252   47.2002 C.3     1  ZINC001347442583   -0.1300
     17 C17        -0.7643   -1.1821   48.7310 C.3     1  ZINC001347442583   -0.1300
     18 C18        -0.7325    0.2942   49.2453 C.3     1  ZINC001347442583    0.1200
     19 H19        -0.9747    0.4304   50.2992 H       1  ZINC001347442583    0.1200
     20 C20         0.6528    0.8496   48.7966 C.3     1  ZINC001347442583    0.1300
     21 H21         1.4458    0.1399   49.0325 H       1  ZINC001347442583    0.1100
     22 N22         0.9180    2.1455   49.4264 N.am    1  ZINC001347442583   -0.7200
     23 C23         1.7244    2.2187   50.5038 C.2     1  ZINC001347442583    0.5300
     24 O24         2.2319    1.2120   50.9509 O.2     1  ZINC001347442583   -0.5300
     25 C25         1.9957    3.5515   51.1527 C.3     1  ZINC001347442583   -0.1500
     26 H26         1.8654    4.3631   50.4370 H       1  ZINC001347442583    0.1100
     27 C27         1.0848    3.7576   52.3936 C.3     1  ZINC001347442583   -0.1400
     28 C28         1.9638    4.7039   53.2498 C.3     1  ZINC001347442583    0.0500
     29 O29         3.3130    4.2618   53.0319 O.3     1  ZINC001347442583   -0.3800
     30 C30         3.4105    3.5845   51.7695 C.3     1  ZINC001347442583    0.0700
     31 C31         0.4616    1.0277   47.2416 C.3     1  ZINC001347442583   -0.1400
     32 H32        -3.2769    1.0641   50.4407 H       1  ZINC001347442583    0.0900
     33 H33        -2.5363    2.6805   50.3558 H       1  ZINC001347442583    0.0900
     34 H34        -4.5988    3.5127   49.1892 H       1  ZINC001347442583    0.0700
     35 H35        -5.3378    1.9107   49.4241 H       1  ZINC001347442583    0.0700
     36 H36        -4.7325    2.2653   51.9475 H       1  ZINC001347442583    0.0600
     37 H37        -4.5832    3.9823   51.5027 H       1  ZINC001347442583    0.0600
     38 H38        -6.8335    4.0095   51.9480 H       1  ZINC001347442583    0.0700
     39 H39        -6.9524    3.3709   50.2907 H       1  ZINC001347442583    0.0700
     40 H40        -8.8658    2.8971   52.6904 H       1  ZINC001347442583    0.1200
     41 H41        -9.8597    0.8198   53.5621 H       1  ZINC001347442583    0.1200
     42 H42        -8.7314   -1.3366   53.1876 H       1  ZINC001347442583    0.1200
     43 H43        -6.6095   -1.4157   51.9406 H       1  ZINC001347442583    0.1200
     44 H44        -5.6180    0.6612   51.0649 H       1  ZINC001347442583    0.1200
     45 H45        -1.8681   -1.4879   46.8699 H       1  ZINC001347442583    0.0700
     46 H46        -0.0863   -1.4526   46.6713 H       1  ZINC001347442583    0.0800
     47 H47        -1.6081   -1.7228   49.1598 H       1  ZINC001347442583    0.0800
     48 H48         0.1736   -1.6874   48.9611 H       1  ZINC001347442583    0.0800
     49 H49         0.5130    2.9508   49.0680 H       1  ZINC001347442583    0.4000
     50 H50         0.1460    4.2371   52.1166 H       1  ZINC001347442583    0.0900
     51 H51         0.9048    2.8146   52.9098 H       1  ZINC001347442583    0.0900
     52 H52         1.8450    5.7349   52.9166 H       1  ZINC001347442583    0.0700
     53 H53         1.7015    4.6134   54.3038 H       1  ZINC001347442583    0.0900
     54 H54         3.7680    2.5663   51.9229 H       1  ZINC001347442583    0.0700
     55 H55         4.0940    4.1229   51.1130 H       1  ZINC001347442583    0.0800
     56 H56         1.1640    0.3994   46.6939 H       1  ZINC001347442583    0.0900
     57 H57         0.5782    2.0736   46.9578 H       1  ZINC001347442583    0.0800
@<TRIPOS>BOND
     1     1     2    2
     2     2     3    1
     3     2    13   am
     4     3     4    1
     5     3    32    1
     6     3    33    1
     7     4     5    1
     8     4    34    1
     9     4    35    1
    10     5     6    1
    11     5    36    1
    12     5    37    1
    13     6     7    1
    14     6    38    1
    15     6    39    1
    16     7    12   ar
    17     7     8   ar
    18     8     9   ar
    19     8    40    1
    20     9    10   ar
    21     9    41    1
    22    10    11   ar
    23    10    42    1
    24    11    12   ar
    25    11    43    1
    26    12    44    1
    27    13    18    1
    28    13    14    1
    29    14    15    1
    30    14    31    1
    31    14    16    1
    32    16    17    1
    33    16    45    1
    34    16    46    1
    35    17    18    1
    36    17    47    1
    37    17    48    1
    38    18    19    1
    39    18    20    1
    40    20    21    1
    41    20    22    1
    42    20    31    1
    43    22    23   am
    44    22    49    1
    45    23    24    2
    46    23    25    1
    47    25    26    1
    48    25    30    1
    49    25    27    1
    50    27    28    1
    51    27    50    1
    52    27    51    1
    53    28    29    1
    54    28    52    1
    55    28    53    1
    56    29    30    1
    57    30    54    1
    58    30    55    1
    59    31    56    1
    60    31    57    1
@<TRIPOS>SUBSTRUCTURE
     1 ZINC001347442583        1 TEMP              0 ****  ****    0 ROOT


##########                                Name:    ZINC000291574087
##########                DOCK_Rotatable_Bonds:                   8
##########                         Heavy_Atoms:                  23
##########                    Molecular_Weight:             387.249
##########                DOCK_Rotatable_Bonds:                   8
##########                       Formal_Charge:          -0.0400007
##########                     HBond_Acceptors:                   6
##########                        HBond_Donors:                   2
##########                         Heavy_Atoms:                  23
##########                          Grid_Score:          -33.197681
##########                     Grid_vdw_energy:          -33.330212
##########                      Grid_es_energy:            0.132530
##########           Internal_energy_repulsive:           23.851326

@<TRIPOS>MOLECULE
ZINC000291574087
 43 44 1 0 0
SMALL
USER_CHARGES


@<TRIPOS>ATOM
      1 C1         -0.8267   -1.1622   48.9190 C.3     1  ZINC000291574087    0.0200
      2 O2         -1.4620   -0.6853   47.7311 O.3     1  ZINC000291574087   -0.3700
      3 C3         -1.0989    0.6499   47.3738 C.3     1  ZINC000291574087    0.1400
      4 C4          0.4021    0.7100   47.0838 C.3     1  ZINC000291574087   -0.1500
      5 C5         -1.4335    1.5958   48.5289 C.3     1  ZINC000291574087    0.0900
      6 N6         -2.8403    1.4312   48.9030 N.am    1  ZINC000291574087   -0.6900
      7 C7         -3.3109    2.0082   50.0265 C.2     1  ZINC000291574087    0.5100
      8 O8         -2.5688    2.6628   50.7290 O.2     1  ZINC000291574087   -0.5100
      9 C9         -4.7454    1.8418   50.4068 C.2     1  ZINC000291574087    0.5100
     10 O10        -5.5799    1.6318   49.5508 O.2     1  ZINC000291574087   -0.4900
     11 N11        -5.1134    1.9247   51.7007 N.am    1  ZINC000291574087   -0.6400
     12 C12        -6.4568    1.7690   52.0570 C.ar    1  ZINC000291574087    0.1300
     13 C13        -7.0051    0.4980   52.1649 C.ar    1  ZINC000291574087   -0.1000
     14 C14        -8.3323    0.3469   52.5175 C.ar    1  ZINC000291574087   -0.0400
     15 C15        -8.9272   -1.0327   52.6346 C.3     1  ZINC000291574087   -0.1300
     16 C16        -9.1160    1.4600   52.7635 C.ar    1  ZINC000291574087   -0.0900
     17 Br17      -10.9318    1.2471   53.2470 Br      1  ZINC000291574087   -0.0300
     18 C18        -8.5741    2.7290   52.6573 C.ar    1  ZINC000291574087   -0.1000
     19 C19        -7.2454    2.8873   52.3097 C.ar    1  ZINC000291574087    0.0700
     20 F20        -6.7162    4.1259   52.2058 F       1  ZINC000291574087   -0.1300
     21 C21        -1.8767    1.0733   46.1261 C.3     1  ZINC000291574087   -0.1900
     22 C22        -1.0712    1.5965   44.9353 C.3     1  ZINC000291574087   -0.1700
     23 C23        -1.7209    0.2129   44.8707 C.3     1  ZINC000291574087   -0.1600
     24 H24        -1.1543   -2.1819   49.1219 H       1  ZINC000291574087    0.0900
     25 H25         0.2548   -1.1483   48.7833 H       1  ZINC000291574087    0.0400
     26 H26        -1.0960   -0.5204   49.7578 H       1  ZINC000291574087    0.0500
     27 H27         0.6405    0.0360   46.2610 H       1  ZINC000291574087    0.0700
     28 H28         0.6790    1.7283   46.8113 H       1  ZINC000291574087    0.0800
     29 H29         0.9562    0.4083   47.9727 H       1  ZINC000291574087    0.0700
     30 H30        -0.8003    1.3624   49.3848 H       1  ZINC000291574087    0.0900
     31 H31        -1.2586    2.6256   48.2175 H       1  ZINC000291574087    0.0800
     32 H32        -3.4332    0.9070   48.3420 H       1  ZINC000291574087    0.4200
     33 H33        -4.4466    2.0924   52.3849 H       1  ZINC000291574087    0.4300
     34 H34        -6.3945   -0.3719   51.9731 H       1  ZINC000291574087    0.1600
     35 H35        -8.8037   -1.3962   53.6547 H       1  ZINC000291574087    0.0800
     36 H36        -9.9885   -0.9928   52.3891 H       1  ZINC000291574087    0.0800
     37 H37        -8.4198   -1.7069   51.9447 H       1  ZINC000291574087    0.0800
     38 H38        -9.1886    3.5961   52.8497 H       1  ZINC000291574087    0.1500
     39 H39        -2.8526    1.5227   46.3105 H       1  ZINC000291574087    0.1100
     40 H40        -1.5169    2.3904   44.3358 H       1  ZINC000291574087    0.1000
     41 H41         0.0129    1.6392   45.0407 H       1  ZINC000291574087    0.1000
     42 H42        -1.0644   -0.6548   44.9336 H       1  ZINC000291574087    0.1000
     43 H43        -2.5942    0.0964   44.2289 H       1  ZINC000291574087    0.1000
@<TRIPOS>BOND
     1     1     2    1
     2     1    24    1
     3     1    25    1
     4     1    26    1
     5     2     3    1
     6     3     4    1
     7     3     5    1
     8     3    21    1
     9     4    27    1
    10     4    28    1
    11     4    29    1
    12     5     6    1
    13     5    30    1
    14     5    31    1
    15     6     7   am
    16     6    32    1
    17     7     8    2
    18     7     9    1
    19     9    10    2
    20     9    11   am
    21    11    12    1
    22    11    33    1
    23    12    19   ar
    24    12    13   ar
    25    13    14   ar
    26    13    34    1
    27    14    15    1
    28    14    16   ar
    29    15    35    1
    30    15    36    1
    31    15    37    1
    32    16    17    1
    33    16    18   ar
    34    18    19   ar
    35    18    38    1
    36    19    20    1
    37    21    23    1
    38    21    22    1
    39    21    39    1
    40    22    23    1
    41    22    40    1
    42    22    41    1
    43    23    42    1
    44    23    43    1
@<TRIPOS>SUBSTRUCTURE
     1 ZINC000291574087        1 TEMP              0 ****  ****    0 ROOT


##########                                Name:    ZINC000623581528
##########                DOCK_Rotatable_Bonds:                   5
##########                         Heavy_Atoms:                  26
##########                    Molecular_Weight:             355.369
##########                DOCK_Rotatable_Bonds:                   5
##########                       Formal_Charge:        -4.47035e-07
##########                     HBond_Acceptors:                   7
##########                        HBond_Donors:                   2
##########                         Heavy_Atoms:                  26
##########                          Grid_Score:          -33.190098
##########                     Grid_vdw_energy:          -32.061779
##########                      Grid_es_energy:           -1.128317
##########           Internal_energy_repulsive:           35.424782

@<TRIPOS>MOLECULE
ZINC000623581528
 44 47 1 0 0
SMALL
USER_CHARGES


@<TRIPOS>ATOM
      1 C1         -6.7905   -1.0125   51.5265 C.3     1  ZINC000623581528    0.1000
      2 N2         -6.9768    0.3718   51.9686 N.am    1  ZINC000623581528   -0.5500
      3 C3         -7.9722    0.8311   52.7526 C.2     1  ZINC000623581528    0.6300
      4 O4         -8.8719    0.1551   53.2131 O.2     1  ZINC000623581528   -0.4800
      5 O5         -7.8165    2.1501   52.9463 O.3     1  ZINC000623581528   -0.2300
      6 C6         -6.7095    2.5696   52.2860 C.ar    1  ZINC000623581528    0.0400
      7 C7         -6.1011    3.8075   52.1521 C.ar    1  ZINC000623581528   -0.0800
      8 C8         -4.9516    3.9321   51.3958 C.ar    1  ZINC000623581528   -0.0900
      9 C9         -4.4040    2.8262   50.7699 C.ar    1  ZINC000623581528   -0.0900
     10 C10        -3.1500    2.9726   49.9471 C.3     1  ZINC000623581528    0.1800
     11 N11        -2.2633    1.8345   50.2018 N.am    1  ZINC000623581528   -0.7400
     12 C12        -1.3965    1.4300   49.2523 C.2     1  ZINC000623581528    0.7100
     13 O13        -1.3514    2.0086   48.1838 O.2     1  ZINC000623581528   -0.5800
     14 N14        -0.5796    0.3841   49.4872 N.am    1  ZINC000623581528   -0.7300
     15 C15         0.3639   -0.0546   48.4558 C.3     1  ZINC000623581528    0.2000
     16 H16         0.6003   -1.1107   48.5850 H       1  ZINC000623581528    0.1000
     17 C17         1.6523    0.7935   48.5130 C.3     1  ZINC000623581528   -0.1300
     18 C18         1.3510    1.9223   47.5044 C.3     1  ZINC000623581528   -0.0800
     19 C19         0.3553    1.3285   46.5310 C.ar    1  ZINC000623581528   -0.1000
     20 C20        -0.0238    1.7494   45.2674 C.ar    1  ZINC000623581528   -0.0800
     21 C21        -0.9663    1.0383   44.5509 C.ar    1  ZINC000623581528   -0.1400
     22 C22        -1.5349   -0.0994   45.0975 C.ar    1  ZINC000623581528    0.0900
     23 F23        -2.4567   -0.7976   44.3990 F       1  ZINC000623581528   -0.1400
     24 C24        -1.1570   -0.5205   46.3602 C.ar    1  ZINC000623581528   -0.1200
     25 C25        -0.2131    0.1899   47.0780 C.ar    1  ZINC000623581528   -0.0900
     26 C26        -5.0037    1.5879   50.8975 C.ar    1  ZINC000623581528   -0.0800
     27 C27        -6.1531    1.4540   51.6598 C.ar    1  ZINC000623581528    0.0700
     28 H28        -6.1795   -1.5470   52.2538 H       1  ZINC000623581528    0.0800
     29 H29        -7.7616   -1.4999   51.4396 H       1  ZINC000623581528    0.0900
     30 H30        -6.2920   -1.0204   50.5572 H       1  ZINC000623581528    0.0900
     31 H31        -6.5250    4.6736   52.6382 H       1  ZINC000623581528    0.1500
     32 H32        -4.4784    4.8974   51.2923 H       1  ZINC000623581528    0.1500
     33 H33        -3.4108    3.0004   48.8891 H       1  ZINC000623581528    0.0800
     34 H34        -2.6419    3.8974   50.2205 H       1  ZINC000623581528    0.0800
     35 H35        -2.3001    1.3723   51.0537 H       1  ZINC000623581528    0.4000
     36 H36        -0.6164   -0.0783   50.3391 H       1  ZINC000623581528    0.4000
     37 H37         1.8054    1.1985   49.5133 H       1  ZINC000623581528    0.0900
     38 H38         2.5152    0.2091   48.1941 H       1  ZINC000623581528    0.0900
     39 H39         0.9144    2.7801   48.0159 H       1  ZINC000623581528    0.0800
     40 H40         2.2617    2.2157   46.9821 H       1  ZINC000623581528    0.0800
     41 H41         0.4195    2.6368   44.8404 H       1  ZINC000623581528    0.1300
     42 H42        -1.2595    1.3695   43.5657 H       1  ZINC000623581528    0.1400
     43 H43        -1.6004   -1.4079   46.7870 H       1  ZINC000623581528    0.1400
     44 H44        -4.5749    0.7258   50.4083 H       1  ZINC000623581528    0.1400
@<TRIPOS>BOND
     1     1     2    1
     2     1    28    1
     3     1    29    1
     4     1    30    1
     5     2    27    1
     6     2     3   am
     7     3     4    2
     8     3     5    1
     9     5     6    1
    10     6    27   ar
    11     6     7   ar
    12     7     8   ar
    13     7    31    1
    14     8     9   ar
    15     8    32    1
    16     9    10    1
    17     9    26   ar
    18    10    11    1
    19    10    33    1
    20    10    34    1
    21    11    12   am
    22    11    35    1
    23    12    13    2
    24    12    14   am
    25    14    15    1
    26    14    36    1
    27    15    16    1
    28    15    25    1
    29    15    17    1
    30    17    18    1
    31    17    37    1
    32    17    38    1
    33    18    19    1
    34    18    39    1
    35    18    40    1
    36    19    25   ar
    37    19    20   ar
    38    20    21   ar
    39    20    41    1
    40    21    22   ar
    41    21    42    1
    42    22    23    1
    43    22    24   ar
    44    24    25   ar
    45    24    43    1
    46    26    27   ar
    47    26    44    1
@<TRIPOS>SUBSTRUCTURE
     1 ZINC000623581528        1 TEMP              0 ****  ****    0 ROOT


##########                                Name:    ZINC000188380122
##########                DOCK_Rotatable_Bonds:                   6
##########                         Heavy_Atoms:                  27
##########                    Molecular_Weight:             396.433
##########                DOCK_Rotatable_Bonds:                   6
##########                       Formal_Charge:           0.0299998
##########                     HBond_Acceptors:                   8
##########                        HBond_Donors:                   1
##########                         Heavy_Atoms:                  27
##########                          Grid_Score:          -33.183224
##########                     Grid_vdw_energy:          -33.434608
##########                      Grid_es_energy:            0.251386
##########           Internal_energy_repulsive:           10.771370

@<TRIPOS>MOLECULE
ZINC000188380122
 46 49 1 0 0
SMALL
USER_CHARGES


@<TRIPOS>ATOM
      1 O1         -3.9360    2.5721   48.6632 O.2     1  ZINC000188380122   -0.5200
      2 C2         -3.5299    2.3426   49.7828 C.2     1  ZINC000188380122    0.5200
      3 C3         -4.1929    2.9886   50.9719 C.3     1  ZINC000188380122   -0.0700
      4 C4         -5.3070    2.1035   51.4683 C.2     1  ZINC000188380122    0.0900
      5 C5         -5.9311    1.2316   50.6691 C.2     1  ZINC000188380122   -0.2400
      6 S6         -7.1592    0.3960   51.6176 S.3     1  ZINC000188380122    0.1000
      7 C7         -6.6943    1.3327   53.0355 C.2     1  ZINC000188380122    0.1100
      8 C8         -7.3062    1.2198   54.3769 C.ar    1  ZINC000188380122   -0.0200
      9 C9         -8.4075    0.3866   54.5767 C.ar    1  ZINC000188380122   -0.0400
     10 C10        -8.9736    0.2854   55.8310 C.ar    1  ZINC000188380122   -0.1200
     11 C11        -8.4519    1.0080   56.8890 C.ar    1  ZINC000188380122   -0.0600
     12 C12        -7.3599    1.8361   56.6974 C.ar    1  ZINC000188380122   -0.1800
     13 C13        -6.7978    2.6192   57.8558 C.3     1  ZINC000188380122    0.5100
     14 F14        -7.3546    3.9026   57.8651 F       1  ZINC000188380122   -0.1700
     15 F15        -7.1086    1.9673   59.0540 F       1  ZINC000188380122   -0.1700
     16 F16        -5.4083    2.7145   57.7236 F       1  ZINC000188380122   -0.1700
     17 C17        -6.7812    1.9418   55.4497 C.ar    1  ZINC000188380122   -0.0500
     18 N18        -5.7216    2.1365   52.7137 N.2     1  ZINC000188380122   -0.4300
     19 N19        -2.4893    1.5054   49.9638 N.am    1  ZINC000188380122   -0.7200
     20 C20        -1.8448    0.8774   48.8078 C.3     1  ZINC000188380122    0.1300
     21 H21        -2.5521    0.6044   48.0247 H       1  ZINC000188380122    0.1200
     22 C22        -0.8718   -0.2545   49.1828 C.3     1  ZINC000188380122   -0.1800
     23 C23         0.0347    0.2827   48.0692 C.3     1  ZINC000188380122    0.0900
     24 H24        -0.2276   -0.1369   47.0979 H       1  ZINC000188380122    0.1200
     25 O25         1.4152    0.1870   48.3149 O.3     1  ZINC000188380122   -0.3700
     26 C26         1.9982    0.9776   49.3342 C.3     1  ZINC000188380122    0.0700
     27 C27         1.5414    2.4316   49.2247 C.3     1  ZINC000188380122   -0.1600
     28 C28         0.0194    2.4800   49.3915 C.3     1  ZINC000188380122   -0.1100
     29 C29        -0.6157    1.6512   48.2889 C.3     1  ZINC000188380122   -0.1500
     30 H30        -0.7952    2.2151   47.3734 H       1  ZINC000188380122    0.0900
     31 H31        -3.4590    3.1285   51.7657 H       1  ZINC000188380122    0.1100
     32 H32        -4.6005    3.9563   50.6795 H       1  ZINC000188380122    0.1100
     33 H33        -5.7192    1.0681   49.6228 H       1  ZINC000188380122    0.1800
     34 H34        -8.8162   -0.1774   53.7514 H       1  ZINC000188380122    0.1500
     35 H35        -9.8259   -0.3591   55.9871 H       1  ZINC000188380122    0.1400
     36 H36        -8.8990    0.9258   57.8686 H       1  ZINC000188380122    0.1500
     37 H37        -5.9289    2.5884   55.3015 H       1  ZINC000188380122    0.1400
     38 H38        -2.1671    1.3189   50.8596 H       1  ZINC000188380122    0.4000
     39 H39        -0.4461   -0.1537   50.1813 H       1  ZINC000188380122    0.0900
     40 H40        -1.2637   -1.2524   48.9859 H       1  ZINC000188380122    0.0800
     41 H41         1.7047    0.5822   50.3065 H       1  ZINC000188380122    0.0500
     42 H42         3.0836    0.9353   49.2439 H       1  ZINC000188380122    0.1000
     43 H43         2.0143    3.0237   50.0082 H       1  ZINC000188380122    0.0800
     44 H44         1.8152    2.8286   48.2471 H       1  ZINC000188380122    0.0800
     45 H45        -0.2549    2.0684   50.3627 H       1  ZINC000188380122    0.0700
     46 H46        -0.3235    3.5120   49.3196 H       1  ZINC000188380122    0.0800
@<TRIPOS>BOND
     1     1     2    2
     2     2     3    1
     3     2    19   am
     4     3     4    1
     5     3    31    1
     6     3    32    1
     7     4    18    1
     8     4     5    2
     9     5     6    1
    10     5    33    1
    11     6     7    1
    12     7     8    1
    13     7    18    2
    14     8    17   ar
    15     8     9   ar
    16     9    10   ar
    17     9    34    1
    18    10    11   ar
    19    10    35    1
    20    11    12   ar
    21    11    36    1
    22    12    13    1
    23    12    17   ar
    24    13    14    1
    25    13    15    1
    26    13    16    1
    27    17    37    1
    28    19    20    1
    29    19    38    1
    30    20    21    1
    31    20    29    1
    32    20    22    1
    33    22    23    1
    34    22    39    1
    35    22    40    1
    36    23    24    1
    37    23    29    1
    38    23    25    1
    39    25    26    1
    40    26    27    1
    41    26    41    1
    42    26    42    1
    43    27    28    1
    44    27    43    1
    45    27    44    1
    46    28    29    1
    47    28    45    1
    48    28    46    1
    49    29    30    1
@<TRIPOS>SUBSTRUCTURE
     1 ZINC000188380122        1 TEMP              0 ****  ****    0 ROOT


##########                                Name:    ZINC001342153661
##########                DOCK_Rotatable_Bonds:                   8
##########                         Heavy_Atoms:                  29
##########                    Molecular_Weight:             395.548
##########                DOCK_Rotatable_Bonds:                   8
##########                       Formal_Charge:          -0.0400005
##########                     HBond_Acceptors:                   6
##########                        HBond_Donors:                   1
##########                         Heavy_Atoms:                  29
##########                          Grid_Score:          -33.171246
##########                     Grid_vdw_energy:          -31.396145
##########                      Grid_es_energy:           -1.775100
##########           Internal_energy_repulsive:           19.895540

@<TRIPOS>MOLECULE
ZINC001342153661
 62 65 1 0 0
SMALL
USER_CHARGES


@<TRIPOS>ATOM
      1 C1         -3.9549    6.1439   52.8195 C.2     1  ZINC001342153661   -0.1400
      2 C2         -3.4442    5.0543   52.3017 C.2     1  ZINC001342153661   -0.1600
      3 C3         -2.7212    4.0685   53.1829 C.3     1  ZINC001342153661   -0.1200
      4 C4         -3.5797    4.7868   50.8248 C.3     1  ZINC001342153661    0.1500
      5 N5         -4.0609    3.4186   50.6184 N.pl3   1  ZINC001342153661   -0.4700
      6 C6         -5.1759    2.8446   51.1637 C.2     1  ZINC001342153661    0.1800
      7 C7         -6.1533    3.5058   52.1009 C.3     1  ZINC001342153661   -0.0600
      8 C8         -7.4532    2.6995   52.1342 C.3     1  ZINC001342153661    0.1600
      9 H9         -7.2621    1.6873   51.7777 H       1  ZINC001342153661    0.1000
     10 O10        -7.9469    2.6471   53.4742 O.3     1  ZINC001342153661   -0.5400
     11 C11        -8.4769    3.3598   51.2471 C.ar    1  ZINC001342153661   -0.1700
     12 C12        -8.1478    3.7337   49.9534 C.ar    1  ZINC001342153661   -0.0600
     13 C13        -9.1220    4.3378   49.1730 C.ar    1  ZINC001342153661   -0.1700
     14 C14       -10.3794    4.5457   49.7070 C.ar    1  ZINC001342153661    0.1000
     15 N15       -10.6570    4.1768   50.9424 N.ar    1  ZINC001342153661   -0.4800
     16 C16        -9.7574    3.5952   51.7111 C.ar    1  ZINC001342153661    0.1100
     17 N17        -5.2368    1.6203   50.7221 N.2     1  ZINC001342153661   -0.2700
     18 N18        -4.2440    1.3835   49.9410 N.2     1  ZINC001342153661   -0.3200
     19 C19        -3.4929    2.4545   49.8375 C.2     1  ZINC001342153661    0.3600
     20 N20        -2.3365    2.5802   49.0843 N.3     1  ZINC001342153661   -0.4500
     21 C21        -2.4120    1.7663   47.8643 C.3     1  ZINC001342153661    0.0500
     22 C22        -1.1865    2.0408   46.9897 C.3     1  ZINC001342153661   -0.1200
     23 C23         0.0823    1.6993   47.7757 C.3     1  ZINC001342153661   -0.1200
     24 C24         0.1124    2.5250   49.0649 C.3     1  ZINC001342153661   -0.0800
     25 H25         0.1511    3.5857   48.8169 H       1  ZINC001342153661    0.0800
     26 C26         1.3475    2.1467   49.8850 C.3     1  ZINC001342153661   -0.0800
     27 C27         2.6338    2.3236   49.0406 C.3     1  ZINC001342153661   -0.1200
     28 C28         3.7295    2.5041   50.1204 C.3     1  ZINC001342153661   -0.1300
     29 C29         3.0466    3.3507   51.2144 C.3     1  ZINC001342153661   -0.1300
     30 C30         1.5320    3.1235   51.0646 C.3     1  ZINC001342153661   -0.1200
     31 C31        -1.1508    2.2364   49.8794 C.3     1  ZINC001342153661    0.0800
     32 H32        -3.8579    6.3357   53.8779 H       1  ZINC001342153661    0.1000
     33 H33        -4.4693    6.8525   52.1872 H       1  ZINC001342153661    0.1100
     34 H34        -3.4423    3.3863   53.6328 H       1  ZINC001342153661    0.0700
     35 H35        -2.0085    3.5010   52.5846 H       1  ZINC001342153661    0.0600
     36 H36        -2.1896    4.6053   53.9687 H       1  ZINC001342153661    0.0700
     37 H37        -4.2900    5.4910   50.3917 H       1  ZINC001342153661    0.1000
     38 H38        -2.6093    4.9071   50.3433 H       1  ZINC001342153661    0.1000
     39 H39        -5.7253    3.5466   53.1026 H       1  ZINC001342153661    0.1100
     40 H40        -6.3622    4.5176   51.7536 H       1  ZINC001342153661    0.1000
     41 H41        -7.2767    2.4154   54.1316 H       1  ZINC001342153661    0.3800
     42 H42        -7.1562    3.5589   49.5627 H       1  ZINC001342153661    0.1300
     43 H43        -8.9005    4.6424   48.1608 H       1  ZINC001342153661    0.1400
     44 H44       -11.1434    5.0159   49.1058 H       1  ZINC001342153661    0.1600
     45 H45       -10.0217    3.3070   52.7179 H       1  ZINC001342153661    0.1500
     46 H46        -2.4370    0.7102   48.1332 H       1  ZINC001342153661    0.0500
     47 H47        -3.3167    2.0221   47.3126 H       1  ZINC001342153661    0.0700
     48 H48        -1.2351    1.4251   46.0916 H       1  ZINC001342153661    0.0800
     49 H49        -1.1683    3.0940   46.7090 H       1  ZINC001342153661    0.0700
     50 H50         0.0830    0.6377   48.0230 H       1  ZINC001342153661    0.0600
     51 H51         0.9590    1.9342   47.1722 H       1  ZINC001342153661    0.0700
     52 H52         1.2645    1.1222   50.2474 H       1  ZINC001342153661    0.0800
     53 H53         2.8266    1.4349   48.4395 H       1  ZINC001342153661    0.0700
     54 H54         2.5632    3.2099   48.4100 H       1  ZINC001342153661    0.0700
     55 H55         4.0336    1.5369   50.5208 H       1  ZINC001342153661    0.0600
     56 H56         4.5879    3.0343   49.7080 H       1  ZINC001342153661    0.0600
     57 H57         3.3775    3.0241   52.2002 H       1  ZINC001342153661    0.0600
     58 H58         3.2819    4.4054   51.0715 H       1  ZINC001342153661    0.0600
     59 H59         1.0323    4.0680   50.8491 H       1  ZINC001342153661    0.0600
     60 H60         1.1280    2.6867   51.9779 H       1  ZINC001342153661    0.0600
     61 H61        -1.1392    2.8335   50.7911 H       1  ZINC001342153661    0.0900
     62 H62        -1.1817    1.1781   50.1388 H       1  ZINC001342153661    0.0500
@<TRIPOS>BOND
     1     1     2    2
     2     1    32    1
     3     1    33    1
     4     2     3    1
     5     2     4    1
     6     3    34    1
     7     3    35    1
     8     3    36    1
     9     4     5    1
    10     4    37    1
    11     4    38    1
    12     5    19    1
    13     5     6    1
    14     6     7    1
    15     6    17    2
    16     7     8    1
    17     7    39    1
    18     7    40    1
    19     8     9    1
    20     8    10    1
    21     8    11    1
    22    10    41    1
    23    11    16   ar
    24    11    12   ar
    25    12    13   ar
    26    12    42    1
    27    13    14   ar
    28    13    43    1
    29    14    15   ar
    30    14    44    1
    31    15    16   ar
    32    16    45    1
    33    17    18    1
    34    18    19    2
    35    19    20    1
    36    20    31    1
    37    20    21    1
    38    21    22    1
    39    21    46    1
    40    21    47    1
    41    22    23    1
    42    22    48    1
    43    22    49    1
    44    23    24    1
    45    23    50    1
    46    23    51    1
    47    24    25    1
    48    24    26    1
    49    24    31    1
    50    26    30    1
    51    26    27    1
    52    26    52    1
    53    27    28    1
    54    27    53    1
    55    27    54    1
    56    28    29    1
    57    28    55    1
    58    28    56    1
    59    29    30    1
    60    29    57    1
    61    29    58    1
    62    30    59    1
    63    30    60    1
    64    31    61    1
    65    31    62    1
@<TRIPOS>SUBSTRUCTURE
     1 ZINC001342153661        1 TEMP              0 ****  ****    0 ROOT


##########                                Name:    ZINC000123469372
##########                DOCK_Rotatable_Bonds:                   7
##########                         Heavy_Atoms:                  25
##########                    Molecular_Weight:             341.382
##########                DOCK_Rotatable_Bonds:                   7
##########                       Formal_Charge:          -0.0300001
##########                     HBond_Acceptors:                   5
##########                        HBond_Donors:                   2
##########                         Heavy_Atoms:                  25
##########                          Grid_Score:          -33.150658
##########                     Grid_vdw_energy:          -33.228485
##########                      Grid_es_energy:            0.077826
##########           Internal_energy_repulsive:            7.951948

@<TRIPOS>MOLECULE
ZINC000123469372
 45 47 1 0 0
SMALL
USER_CHARGES


@<TRIPOS>ATOM
      1 C1         -0.2868   -0.5508   49.1674 C.3     1  ZINC000123469372   -0.1700
      2 C2         -0.6727    0.7130   48.3961 C.3     1  ZINC000123469372    0.1500
      3 H3          0.1594    1.4169   48.4126 H       1  ZINC000123469372    0.0900
      4 C4         -1.0018    0.3461   46.9477 C.3     1  ZINC000123469372   -0.1600
      5 C5         -0.4566    1.4265   46.0116 C.3     1  ZINC000123469372    0.1500
      6 H6          0.5051    1.7788   46.3844 H       1  ZINC000123469372    0.1100
      7 O7         -1.3761    2.5191   45.9583 O.3     1  ZINC000123469372   -0.5500
      8 C8         -0.2795    0.8513   44.6299 C.ar    1  ZINC000123469372   -0.1200
      9 C9          0.8728    1.1157   43.9136 C.ar    1  ZINC000123469372   -0.1100
     10 C10         1.0352    0.5881   42.6462 C.ar    1  ZINC000123469372   -0.1200
     11 C11         0.0454   -0.2043   42.0953 C.ar    1  ZINC000123469372   -0.1200
     12 C12        -1.1065   -0.4694   42.8120 C.ar    1  ZINC000123469372   -0.1200
     13 C13        -1.2671    0.0547   44.0811 C.ar    1  ZINC000123469372   -0.1100
     14 N14        -1.8454    1.3284   49.0225 N.am    1  ZINC000123469372   -0.7100
     15 C15        -1.7701    2.5842   49.5058 C.2     1  ZINC000123469372    0.5700
     16 O16        -0.7273    3.2067   49.4231 O.2     1  ZINC000123469372   -0.5400
     17 C17        -2.9412    3.1992   50.1295 C.2     1  ZINC000123469372   -0.2200
     18 C18        -4.1883    2.8559   49.7232 C.2     1  ZINC000123469372    0.0000
     19 C19        -5.3301    3.5202   50.3708 C.ar    1  ZINC000123469372   -0.1200
     20 C20        -6.6235    3.0105   50.2664 C.ar    1  ZINC000123469372   -0.0900
     21 C21        -7.6662    3.6680   50.8909 C.ar    1  ZINC000123469372    0.0700
     22 F22        -8.9225    3.1803   50.7949 F       1  ZINC000123469372   -0.1400
     23 C23        -7.4289    4.8261   51.6166 C.ar    1  ZINC000123469372   -0.1100
     24 C24        -6.1492    5.3391   51.7252 C.ar    1  ZINC000123469372   -0.1200
     25 C25        -5.0935    4.6942   51.1071 C.ar    1  ZINC000123469372    0.1300
     26 O26        -3.8275    5.1726   51.1945 O.3     1  ZINC000123469372   -0.3000
     27 C27        -2.7672    4.2126   51.2307 C.3     1  ZINC000123469372    0.1100
     28 H28         0.5856   -1.0087   48.7013 H       1  ZINC000123469372    0.0700
     29 H29        -0.0525   -0.2894   50.1992 H       1  ZINC000123469372    0.0600
     30 H30        -1.1189   -1.2547   49.1509 H       1  ZINC000123469372    0.0600
     31 H31        -0.5437   -0.6120   46.7025 H       1  ZINC000123469372    0.0900
     32 H32        -2.0827    0.2733   46.8280 H       1  ZINC000123469372    0.0800
     33 H33        -2.2731    2.2660   45.7003 H       1  ZINC000123469372    0.3700
     34 H34         1.6460    1.7348   44.3440 H       1  ZINC000123469372    0.1200
     35 H35         1.9352    0.7953   42.0863 H       1  ZINC000123469372    0.1200
     36 H36         0.1720   -0.6159   41.1049 H       1  ZINC000123469372    0.1200
     37 H37        -1.8799   -1.0883   42.3815 H       1  ZINC000123469372    0.1200
     38 H38        -2.1670   -0.1525   44.6410 H       1  ZINC000123469372    0.1200
     39 H39        -2.6760    0.8320   49.0895 H       1  ZINC000123469372    0.4000
     40 H40        -4.3387    2.1184   48.9485 H       1  ZINC000123469372    0.1500
     41 H41        -6.8092    2.1090   49.7015 H       1  ZINC000123469372    0.1500
     42 H42        -8.2509    5.3321   52.1008 H       1  ZINC000123469372    0.1500
     43 H43        -5.9746    6.2417   52.2918 H       1  ZINC000123469372    0.1500
     44 H44        -2.7704    3.7084   52.1970 H       1  ZINC000123469372    0.0800
     45 H45        -1.8137    4.7237   51.0975 H       1  ZINC000123469372    0.1100
@<TRIPOS>BOND
     1     1     2    1
     2     1    28    1
     3     1    29    1
     4     1    30    1
     5     2     3    1
     6     2     4    1
     7     2    14    1
     8     4     5    1
     9     4    31    1
    10     4    32    1
    11     5     6    1
    12     5     7    1
    13     5     8    1
    14     7    33    1
    15     8    13   ar
    16     8     9   ar
    17     9    10   ar
    18     9    34    1
    19    10    11   ar
    20    10    35    1
    21    11    12   ar
    22    11    36    1
    23    12    13   ar
    24    12    37    1
    25    13    38    1
    26    14    15   am
    27    14    39    1
    28    15    16    2
    29    15    17    1
    30    17    27    1
    31    17    18    2
    32    18    19    1
    33    18    40    1
    34    19    25   ar
    35    19    20   ar
    36    20    21   ar
    37    20    41    1
    38    21    22    1
    39    21    23   ar
    40    23    24   ar
    41    23    42    1
    42    24    25   ar
    43    24    43    1
    44    25    26    1
    45    26    27    1
    46    27    44    1
    47    27    45    1
@<TRIPOS>SUBSTRUCTURE
     1 ZINC000123469372        1 TEMP              0 ****  ****    0 ROOT


##########                                Name:    ZINC001436455587
##########                DOCK_Rotatable_Bonds:                   9
##########                         Heavy_Atoms:                  21
##########                    Molecular_Weight:             378.693
##########                DOCK_Rotatable_Bonds:                   9
##########                       Formal_Charge:          -0.0200001
##########                     HBond_Acceptors:                   5
##########                        HBond_Donors:                   1
##########                         Heavy_Atoms:                  21
##########                          Grid_Score:          -33.147640
##########                     Grid_vdw_energy:          -33.603031
##########                      Grid_es_energy:            0.455390
##########           Internal_energy_repulsive:            9.728693

@<TRIPOS>MOLECULE
ZINC001436455587
 42 42 1 0 0
SMALL
USER_CHARGES


@<TRIPOS>ATOM
      1 C1          1.5639    0.7557   48.5958 C.3     1  ZINC001436455587   -0.1500
      2 C2          0.3373   -0.1059   48.2896 C.3     1  ZINC001436455587   -0.1300
      3 C3         -0.8587    0.4046   49.0959 C.3     1  ZINC001436455587   -0.1400
      4 C4         -1.4660    1.6204   48.3930 C.3     1  ZINC001436455587    0.0800
      5 H5         -0.6752    2.1907   47.9055 H       1  ZINC001436455587    0.0700
      6 C6         -2.1720    2.5049   49.4226 C.3     1  ZINC001436455587    0.1200
      7 N7         -3.4355    1.8788   49.8198 N.am    1  ZINC001436455587   -0.7200
      8 C8         -4.4584    2.6416   50.2538 C.2     1  ZINC001436455587    0.5200
      9 O9         -4.3333    3.8464   50.3142 O.2     1  ZINC001436455587   -0.5100
     10 C10        -5.7576    1.9974   50.6641 C.3     1  ZINC001436455587    0.0600
     11 H11        -5.9754    1.1625   49.9979 H       1  ZINC001436455587    0.1000
     12 C12        -6.8865    3.0263   50.5781 C.3     1  ZINC001436455587   -0.1800
     13 O13        -5.6494    1.5199   52.0065 O.3     1  ZINC001436455587   -0.2700
     14 C14        -6.7328    0.8824   52.5241 C.ar    1  ZINC001436455587    0.1600
     15 C15        -7.2214   -0.2629   51.9140 C.ar    1  ZINC001436455587   -0.2000
     16 C16        -8.3225   -0.9099   52.4417 C.ar    1  ZINC001436455587   -0.0500
     17 C17        -8.9380   -0.4158   53.5778 C.ar    1  ZINC001436455587   -0.0700
     18 Cl18      -10.3215   -1.2304   54.2381 Cl      1  ZINC001436455587   -0.0600
     19 C19        -8.4522    0.7269   54.1888 C.ar    1  ZINC001436455587   -0.0400
     20 C20        -7.3480    1.3740   53.6673 C.ar    1  ZINC001436455587   -0.1200
     21 Br21       -6.6842    2.9354   54.5024 Br      1  ZINC001436455587   -0.0100
     22 O22        -2.4102    1.1823   47.4140 O.3     1  ZINC001436455587   -0.3800
     23 C23        -2.0806    1.5640   46.0769 C.3     1  ZINC001436455587    0.0200
     24 H24         1.3578    1.7910   48.3240 H       1  ZINC001436455587    0.0500
     25 H25         1.7920    0.6980   49.6602 H       1  ZINC001436455587    0.0600
     26 H26         2.4159    0.3920   48.0215 H       1  ZINC001436455587    0.0600
     27 H27         0.1091   -0.0482   47.2253 H       1  ZINC001436455587    0.0600
     28 H28         0.5433   -1.1411   48.5615 H       1  ZINC001436455587    0.0700
     29 H29        -1.6084   -0.3829   49.1721 H       1  ZINC001436455587    0.0800
     30 H30        -0.5284    0.6898   50.0947 H       1  ZINC001436455587    0.0800
     31 H31        -1.5340    2.6231   50.2985 H       1  ZINC001436455587    0.0800
     32 H32        -2.3728    3.4827   48.9849 H       1  ZINC001436455587    0.0800
     33 H33        -3.5359    0.9152   49.7704 H       1  ZINC001436455587    0.4000
     34 H34        -7.8262    2.5604   50.8749 H       1  ZINC001436455587    0.0800
     35 H35        -6.6688    3.8612   51.2442 H       1  ZINC001436455587    0.0800
     36 H36        -6.9691    3.3905   49.5540 H       1  ZINC001436455587    0.0800
     37 H37        -6.7418   -0.6489   51.0266 H       1  ZINC001436455587    0.1500
     38 H38        -8.7031   -1.8020   51.9666 H       1  ZINC001436455587    0.1400
     39 H39        -8.9339    1.1110   55.0759 H       1  ZINC001436455587    0.1500
     40 H40        -1.1588    1.0673   45.7740 H       1  ZINC001436455587    0.0500
     41 H41        -2.8883    1.2715   45.4060 H       1  ZINC001436455587    0.0900
     42 H42        -1.9432    2.6443   46.0309 H       1  ZINC001436455587    0.0400
@<TRIPOS>BOND
     1     1     2    1
     2     1    24    1
     3     1    25    1
     4     1    26    1
     5     2     3    1
     6     2    27    1
     7     2    28    1
     8     3     4    1
     9     3    29    1
    10     3    30    1
    11     4     5    1
    12     4     6    1
    13     4    22    1
    14     6     7    1
    15     6    31    1
    16     6    32    1
    17     7     8   am
    18     7    33    1
    19     8     9    2
    20     8    10    1
    21    10    11    1
    22    10    12    1
    23    10    13    1
    24    12    34    1
    25    12    35    1
    26    12    36    1
    27    13    14    1
    28    14    20   ar
    29    14    15   ar
    30    15    16   ar
    31    15    37    1
    32    16    17   ar
    33    16    38    1
    34    17    18    1
    35    17    19   ar
    36    19    20   ar
    37    19    39    1
    38    20    21    1
    39    22    23    1
    40    23    40    1
    41    23    41    1
    42    23    42    1
@<TRIPOS>SUBSTRUCTURE
     1 ZINC001436455587        1 TEMP              0 ****  ****    0 ROOT


##########                                Name:    ZINC000469435497
##########                DOCK_Rotatable_Bonds:                   6
##########                         Heavy_Atoms:                  27
##########                    Molecular_Weight:             364.444
##########                DOCK_Rotatable_Bonds:                   6
##########                       Formal_Charge:           0.0300001
##########                     HBond_Acceptors:                   5
##########                        HBond_Donors:                   2
##########                         Heavy_Atoms:                  27
##########                          Grid_Score:          -33.132553
##########                     Grid_vdw_energy:          -32.680473
##########                      Grid_es_energy:           -0.452082
##########           Internal_energy_repulsive:            5.611969

@<TRIPOS>MOLECULE
ZINC000469435497
 51 54 1 0 0
SMALL
USER_CHARGES


@<TRIPOS>ATOM
      1 C1         -9.5772   -0.2193   55.6577 C.3     1  ZINC000469435497   -0.1600
      2 C2        -10.2761   -0.1806   54.2972 C.3     1  ZINC000469435497    0.1000
      3 C3        -11.7478   -0.5752   54.4348 C.3     1  ZINC000469435497   -0.1400
      4 C4        -10.1377    1.2175   53.6497 C.3     1  ZINC000469435497   -0.1000
      5 C5         -8.8937    1.0475   52.7990 C.ar    1  ZINC000469435497   -0.1500
      6 C6         -8.0638    1.9582   52.1854 C.ar    1  ZINC000469435497   -0.0700
      7 C7         -6.9661    1.5152   51.4573 C.ar    1  ZINC000469435497    0.1100
      8 N8         -6.1174    2.4373   50.8307 N.am    1  ZINC000469435497   -0.6600
      9 C9         -5.0774    2.9635   51.5073 C.2     1  ZINC000469435497    0.5100
     10 O10        -4.8761    2.6390   52.6585 O.2     1  ZINC000469435497   -0.5200
     11 C11        -4.1644    3.9553   50.8335 C.3     1  ZINC000469435497    0.1000
     12 N12        -2.9735    3.2628   50.3354 N.am    1  ZINC000469435497   -0.7200
     13 C13        -3.0362    2.5518   49.1922 C.2     1  ZINC000469435497    0.5700
     14 O14        -4.0813    2.4840   48.5751 O.2     1  ZINC000469435497   -0.5300
     15 C15        -1.8338    1.8543   48.6885 C.ar    1  ZINC000469435497   -0.1400
     16 C16        -1.8979    1.1054   47.5128 C.ar    1  ZINC000469435497   -0.0800
     17 C17        -0.7718    0.4584   47.0507 C.ar    1  ZINC000469435497   -0.1100
     18 C18         0.4237    0.5472   47.7467 C.ar    1  ZINC000469435497   -0.0700
     19 C19         1.7768   -0.0634   47.4479 C.3     1  ZINC000469435497   -0.0900
     20 C20         2.7794    0.7353   48.3075 C.3     1  ZINC000469435497   -0.1200
     21 C21         1.8980    1.2254   49.4758 C.3     1  ZINC000469435497   -0.0800
     22 C22         0.4937    1.2885   48.9135 C.ar    1  ZINC000469435497   -0.1100
     23 C23        -0.6275    1.9459   49.3827 C.ar    1  ZINC000469435497   -0.0400
     24 C24        -6.7153    0.1537   51.3546 C.ar    1  ZINC000469435497   -0.1000
     25 C25        -7.5514   -0.7557   51.9675 C.ar    1  ZINC000469435497   -0.1200
     26 C26        -8.6544   -0.3171   52.6957 C.ar    1  ZINC000469435497    0.1000
     27 O27        -9.6054   -1.0354   53.3557 O.3     1  ZINC000469435497   -0.3000
     28 H28        -8.5397    0.0947   55.5424 H       1  ZINC000469435497    0.0600
     29 H29       -10.0862    0.4544   56.3469 H       1  ZINC000469435497    0.0800
     30 H30        -9.6077   -1.2346   56.0531 H       1  ZINC000469435497    0.0700
     31 H31       -12.2518    0.1272   55.0987 H       1  ZINC000469435497    0.0800
     32 H32       -12.2232   -0.5532   53.4542 H       1  ZINC000469435497    0.0700
     33 H33       -11.8171   -1.5808   54.8497 H       1  ZINC000469435497    0.0700
     34 H34       -11.0047    1.4475   53.0304 H       1  ZINC000469435497    0.0900
     35 H35        -9.9884    1.9853   54.4089 H       1  ZINC000469435497    0.0900
     36 H36        -8.2656    3.0159   52.2693 H       1  ZINC000469435497    0.1400
     37 H37        -6.2783    2.6968   49.9101 H       1  ZINC000469435497    0.4200
     38 H38        -4.6881    4.4230   49.9998 H       1  ZINC000469435497    0.1100
     39 H39        -3.8666    4.7204   51.5505 H       1  ZINC000469435497    0.1100
     40 H40        -2.1398    3.3159   50.8283 H       1  ZINC000469435497    0.4100
     41 H41        -2.8269    1.0326   46.9668 H       1  ZINC000469435497    0.1300
     42 H42        -0.8215   -0.1216   46.1409 H       1  ZINC000469435497    0.1300
     43 H43         1.7883   -1.1154   47.7329 H       1  ZINC000469435497    0.0900
     44 H44         2.0154    0.0452   46.3898 H       1  ZINC000469435497    0.0800
     45 H45         3.5793    0.0896   48.6700 H       1  ZINC000469435497    0.0800
     46 H46         3.1842    1.5782   47.7475 H       1  ZINC000469435497    0.0700
     47 H47         1.9421    0.5193   50.3049 H       1  ZINC000469435497    0.0800
     48 H48         2.2192    2.2143   49.8027 H       1  ZINC000469435497    0.0800
     49 H49        -0.5706    2.5287   50.2903 H       1  ZINC000469435497    0.1400
     50 H50        -5.8618   -0.1949   50.7920 H       1  ZINC000469435497    0.1400
     51 H51        -7.3497   -1.8133   51.8827 H       1  ZINC000469435497    0.1300
@<TRIPOS>BOND
     1     1     2    1
     2     1    28    1
     3     1    29    1
     4     1    30    1
     5     2    27    1
     6     2     3    1
     7     2     4    1
     8     3    31    1
     9     3    32    1
    10     3    33    1
    11     4     5    1
    12     4    34    1
    13     4    35    1
    14     5    26   ar
    15     5     6   ar
    16     6     7   ar
    17     6    36    1
    18     7     8    1
    19     7    24   ar
    20     8     9   am
    21     8    37    1
    22     9    10    2
    23     9    11    1
    24    11    12    1
    25    11    38    1
    26    11    39    1
    27    12    13   am
    28    12    40    1
    29    13    14    2
    30    13    15    1
    31    15    23   ar
    32    15    16   ar
    33    16    17   ar
    34    16    41    1
    35    17    18   ar
    36    17    42    1
    37    18    22   ar
    38    18    19    1
    39    19    20    1
    40    19    43    1
    41    19    44    1
    42    20    21    1
    43    20    45    1
    44    20    46    1
    45    21    22    1
    46    21    47    1
    47    21    48    1
    48    22    23   ar
    49    23    49    1
    50    24    25   ar
    51    24    50    1
    52    25    26   ar
    53    25    51    1
    54    26    27    1
@<TRIPOS>SUBSTRUCTURE
     1 ZINC000469435497        1 TEMP              0 ****  ****    0 ROOT


##########                                Name:    ZINC000442864105
##########                DOCK_Rotatable_Bonds:                   7
##########                         Heavy_Atoms:                  30
##########                    Molecular_Weight:              414.39
##########                DOCK_Rotatable_Bonds:                   7
##########                       Formal_Charge:           0.0200001
##########                     HBond_Acceptors:                  10
##########                        HBond_Donors:                   2
##########                         Heavy_Atoms:                  30
##########                          Grid_Score:          -33.127331
##########                     Grid_vdw_energy:          -31.771376
##########                      Grid_es_energy:           -1.355955
##########           Internal_energy_repulsive:           17.772509

@<TRIPOS>MOLECULE
ZINC000442864105
 47 50 1 0 0
SMALL
USER_CHARGES


@<TRIPOS>ATOM
      1 C1         -1.6880   -0.2424   42.9414 C.3     1  ZINC000442864105    0.0800
      2 N2         -0.5046    0.3882   43.5316 N.pl3   1  ZINC000442864105   -0.4900
      3 C3          0.7412    0.4120   42.9622 C.2     1  ZINC000442864105    0.0300
      4 C4          1.5967    1.0679   43.7612 C.2     1  ZINC000442864105   -0.1900
      5 C5          0.8383    1.5000   44.9388 C.ar    1  ZINC000442864105   -0.1600
      6 C6          1.1672    2.2090   46.0958 C.ar    1  ZINC000442864105   -0.0200
      7 C7          0.2084    2.4600   47.0352 C.ar    1  ZINC000442864105   -0.2100
      8 C8         -1.0987    2.0131   46.8477 C.ar    1  ZINC000442864105    0.2400
      9 N9         -2.0686    2.2783   47.8190 N.pl3   1  ZINC000442864105   -0.7400
     10 C10        -1.7621    2.0694   49.2362 C.3     1  ZINC000442864105    0.1100
     11 C11        -2.9692    2.4192   50.0680 C.2     1  ZINC000442864105    0.5100
     12 O12        -3.8328    1.5900   50.2624 O.2     1  ZINC000442864105   -0.5100
     13 N13        -3.0891    3.6534   50.5960 N.am    1  ZINC000442864105   -0.6600
     14 C14        -4.2102    3.9784   51.3685 C.ar    1  ZINC000442864105    0.1600
     15 C15        -5.4704    4.0036   50.7895 C.ar    1  ZINC000442864105   -0.0700
     16 C16        -6.5759    4.3247   51.5542 C.ar    1  ZINC000442864105   -0.1600
     17 C17        -7.9440    4.3514   50.9230 C.3     1  ZINC000442864105    0.5100
     18 F18        -8.1619    5.6018   50.3347 F       1  ZINC000442864105   -0.1700
     19 F19        -8.0256    3.3549   49.9445 F       1  ZINC000442864105   -0.1700
     20 F20        -8.9147    4.1222   51.9041 F       1  ZINC000442864105   -0.1700
     21 C21        -6.4302    4.6212   52.8971 C.ar    1  ZINC000442864105   -0.0600
     22 C22        -5.1783    4.5990   53.4822 C.ar    1  ZINC000442864105   -0.1100
     23 C23        -4.0642    4.2722   52.7240 C.ar    1  ZINC000442864105    0.1500
     24 N24        -2.7928    4.2491   53.3157 N.pl3   1  ZINC000442864105   -0.3300
     25 C25        -2.4995    4.4847   54.6090 C.2     1  ZINC000442864105    0.2800
     26 N26        -1.2049    4.3665   54.7591 N.2     1  ZINC000442864105   -0.5300
     27 C27        -0.6407    4.0579   53.5921 C.2     1  ZINC000442864105    0.2300
     28 N28        -1.5726    3.9695   52.6790 N.2     1  ZINC000442864105   -0.3400
     29 C29        -1.4437    1.3092   45.7068 C.ar    1  ZINC000442864105   -0.2100
     30 C30        -0.4799    1.0504   44.7387 C.ar    1  ZINC000442864105    0.1500
     31 H31        -2.2120    0.4813   42.3170 H       1  ZINC000442864105    0.0700
     32 H32        -1.3811   -1.0927   42.3326 H       1  ZINC000442864105    0.0800
     33 H33        -2.3515   -0.5847   43.7356 H       1  ZINC000442864105    0.0800
     34 H34         0.9969   -0.0314   42.0112 H       1  ZINC000442864105    0.1700
     35 H35         2.6455    1.2438   43.5725 H       1  ZINC000442864105    0.1400
     36 H36         2.1780    2.5579   46.2478 H       1  ZINC000442864105    0.1200
     37 H37         0.4645    3.0082   47.9298 H       1  ZINC000442864105    0.1200
     38 H38        -2.9443    2.6006   47.5545 H       1  ZINC000442864105    0.4100
     39 H39        -1.4979    1.0248   49.4007 H       1  ZINC000442864105    0.1000
     40 H40        -0.9255    2.7056   49.5247 H       1  ZINC000442864105    0.1000
     41 H41        -2.3984    4.3165   50.4406 H       1  ZINC000442864105    0.4300
     42 H42        -5.5876    3.7726   49.7410 H       1  ZINC000442864105    0.1700
     43 H43        -7.2974    4.8712   53.4903 H       1  ZINC000442864105    0.1500
     44 H44        -5.0682    4.8314   54.5311 H       1  ZINC000442864105    0.1500
     45 H45        -3.2086    4.7292   55.3861 H       1  ZINC000442864105    0.2300
     46 H46         0.4153    3.9017   53.4278 H       1  ZINC000442864105    0.2300
     47 H47        -2.4581    0.9657   45.5675 H       1  ZINC000442864105    0.1200
@<TRIPOS>BOND
     1     1     2    1
     2     1    31    1
     3     1    32    1
     4     1    33    1
     5     2    30    1
     6     2     3    1
     7     3     4    2
     8     3    34    1
     9     4     5    1
    10     4    35    1
    11     5    30   ar
    12     5     6   ar
    13     6     7   ar
    14     6    36    1
    15     7     8   ar
    16     7    37    1
    17     8     9    1
    18     8    29   ar
    19     9    10    1
    20     9    38    1
    21    10    11    1
    22    10    39    1
    23    10    40    1
    24    11    12    2
    25    11    13   am
    26    13    14    1
    27    13    41    1
    28    14    23   ar
    29    14    15   ar
    30    15    16   ar
    31    15    42    1
    32    16    17    1
    33    16    21   ar
    34    17    18    1
    35    17    19    1
    36    17    20    1
    37    21    22   ar
    38    21    43    1
    39    22    23   ar
    40    22    44    1
    41    23    24    1
    42    24    28    1
    43    24    25    1
    44    25    26    2
    45    25    45    1
    46    26    27    1
    47    27    28    2
    48    27    46    1
    49    29    30   ar
    50    29    47    1
@<TRIPOS>SUBSTRUCTURE
     1 ZINC000442864105        1 TEMP              0 ****  ****    0 ROOT


##########                                Name:    ZINC000031496632
##########                DOCK_Rotatable_Bonds:                   8
##########                         Heavy_Atoms:                  30
##########                    Molecular_Weight:             423.539
##########                DOCK_Rotatable_Bonds:                   8
##########                       Formal_Charge:          -0.0100009
##########                     HBond_Acceptors:                   8
##########                        HBond_Donors:                   1
##########                         Heavy_Atoms:                  30
##########                          Grid_Score:          -33.126907
##########                     Grid_vdw_energy:          -33.626717
##########                      Grid_es_energy:            0.499810
##########           Internal_energy_repulsive:           10.336470

@<TRIPOS>MOLECULE
ZINC000031496632
 55 58 1 0 0
SMALL
USER_CHARGES


@<TRIPOS>ATOM
      1 C1         -5.2573    3.3497   50.5072 C.3     1  ZINC000031496632   -0.1600
      2 C2         -6.2853    3.8543   51.5219 C.3     1  ZINC000031496632    0.1600
      3 C3         -7.4045    4.5959   50.7881 C.3     1  ZINC000031496632   -0.1600
      4 N4         -6.8501    2.7167   52.2518 N.pl3   1  ZINC000031496632   -0.3900
      5 N5         -7.4704    1.6075   51.6686 N.2     1  ZINC000031496632   -0.2300
      6 C6         -7.8619    0.7767   52.5919 C.2     1  ZINC000031496632    0.0800
      7 C7         -7.4915    1.3435   53.8840 C.ar    1  ZINC000031496632   -0.2100
      8 C8         -7.6424    0.9262   55.2113 C.ar    1  ZINC000031496632    0.0100
      9 C9         -7.1520    1.7500   56.2124 C.ar    1  ZINC000031496632    0.0500
     10 N10        -7.2766    1.3795   57.5578 N.am    1  ZINC000031496632   -0.6600
     11 C11        -8.2698    1.8943   58.3093 C.2     1  ZINC000031496632    0.5500
     12 O12        -9.0579    2.6807   57.8197 O.2     1  ZINC000031496632   -0.4900
     13 C13        -8.4009    1.5046   59.7245 C.ar    1  ZINC000031496632   -0.1300
     14 C14        -8.0755    2.4113   60.7364 C.ar    1  ZINC000031496632   -0.0600
     15 C15        -8.2002    2.0408   62.0575 C.ar    1  ZINC000031496632   -0.1400
     16 C16        -8.6468    0.7715   62.3902 C.ar    1  ZINC000031496632   -0.0600
     17 C17        -8.9718   -0.1360   61.4033 C.ar    1  ZINC000031496632   -0.1500
     18 C18        -8.8591    0.2211   60.0647 C.ar    1  ZINC000031496632   -0.0600
     19 S19        -9.2739   -0.9352   58.8015 S.3     1  ZINC000031496632    0.0900
     20 C20        -9.9509   -2.3349   59.7359 C.3     1  ZINC000031496632   -0.2000
     21 C21       -10.4116   -3.4028   58.7775 C.2     1  ZINC000031496632    0.5500
     22 O22        -9.6523   -4.2882   58.4454 O.2     1  ZINC000031496632   -0.5200
     23 N23       -11.6675   -3.3736   58.2892 N.am    1  ZINC000031496632   -0.6200
     24 C24       -12.2477   -4.3519   57.3577 C.3     1  ZINC000031496632    0.1000
     25 C25       -13.6928   -3.8998   57.0597 C.3     1  ZINC000031496632   -0.1300
     26 C26       -13.6594   -2.3855   57.3959 C.3     1  ZINC000031496632   -0.1300
     27 C27       -12.6891   -2.3590   58.6060 C.3     1  ZINC000031496632    0.1000
     28 C28        -6.5331    2.9504   55.8674 C.ar    1  ZINC000031496632    0.1600
     29 N29        -6.4038    3.3203   54.6126 N.ar    1  ZINC000031496632   -0.4900
     30 C30        -6.8489    2.5682   53.6138 C.ar    1  ZINC000031496632    0.3000
     31 H31        -4.8371    4.1961   49.9640 H       1  ZINC000031496632    0.0800
     32 H32        -4.4599    2.8214   51.0299 H       1  ZINC000031496632    0.0600
     33 H33        -5.7424    2.6720   49.8048 H       1  ZINC000031496632    0.0700
     34 H34        -5.8000    4.5321   52.2242 H       1  ZINC000031496632    0.1100
     35 H35        -6.9842    5.4423   50.2449 H       1  ZINC000031496632    0.0800
     36 H36        -7.8897    3.9182   50.0856 H       1  ZINC000031496632    0.0700
     37 H37        -8.1368    4.9554   51.5108 H       1  ZINC000031496632    0.0600
     38 H38        -8.3698   -0.1627   52.4301 H       1  ZINC000031496632    0.2000
     39 H39        -8.1269   -0.0095   55.4485 H       1  ZINC000031496632    0.1500
     40 H40        -6.6481    0.7523   57.9483 H       1  ZINC000031496632    0.4100
     41 H41        -7.7263    3.4014   60.4833 H       1  ZINC000031496632    0.1300
     42 H42        -7.9482    2.7432   62.8384 H       1  ZINC000031496632    0.1300
     43 H43        -8.7407    0.4910   63.4290 H       1  ZINC000031496632    0.1300
     44 H44        -9.3184   -1.1232   61.6711 H       1  ZINC000031496632    0.1300
     45 H45        -9.1799   -2.7420   60.3900 H       1  ZINC000031496632    0.1100
     46 H46       -10.7954   -1.9966   60.3362 H       1  ZINC000031496632    0.1100
     47 H47       -11.6682   -4.3734   56.4346 H       1  ZINC000031496632    0.0700
     48 H48       -12.2555   -5.3408   57.8160 H       1  ZINC000031496632    0.0700
     49 H49       -13.9370   -4.0563   56.0090 H       1  ZINC000031496632    0.0900
     50 H50       -14.4006   -4.4223   57.7032 H       1  ZINC000031496632    0.0800
     51 H51       -13.2632   -1.8084   56.5604 H       1  ZINC000031496632    0.0800
     52 H52       -14.6482   -2.0271   57.6823 H       1  ZINC000031496632    0.0900
     53 H53       -13.2185   -2.6193   59.5225 H       1  ZINC000031496632    0.0700
     54 H54       -12.2266   -1.3765   58.7000 H       1  ZINC000031496632    0.0800
     55 H55        -6.1516    3.5911   56.6486 H       1  ZINC000031496632    0.1700
@<TRIPOS>BOND
     1     1     2    1
     2     1    31    1
     3     1    32    1
     4     1    33    1
     5     2     3    1
     6     2     4    1
     7     2    34    1
     8     3    35    1
     9     3    36    1
    10     3    37    1
    11     4    30    1
    12     4     5    1
    13     5     6    2
    14     6     7    1
    15     6    38    1
    16     7    30   ar
    17     7     8   ar
    18     8     9   ar
    19     8    39    1
    20     9    10    1
    21     9    28   ar
    22    10    11   am
    23    10    40    1
    24    11    12    2
    25    11    13    1
    26    13    18   ar
    27    13    14   ar
    28    14    15   ar
    29    14    41    1
    30    15    16   ar
    31    15    42    1
    32    16    17   ar
    33    16    43    1
    34    17    18   ar
    35    17    44    1
    36    18    19    1
    37    19    20    1
    38    20    21    1
    39    20    45    1
    40    20    46    1
    41    21    22    2
    42    21    23   am
    43    23    27    1
    44    23    24    1
    45    24    25    1
    46    24    47    1
    47    24    48    1
    48    25    26    1
    49    25    49    1
    50    25    50    1
    51    26    27    1
    52    26    51    1
    53    26    52    1
    54    27    53    1
    55    27    54    1
    56    28    29   ar
    57    28    55    1
    58    29    30   ar
@<TRIPOS>SUBSTRUCTURE
     1 ZINC000031496632        1 TEMP              0 ****  ****    0 ROOT


##########                                Name:    ZINC001061022329
##########                DOCK_Rotatable_Bonds:                   7
##########                         Heavy_Atoms:                  27
##########                    Molecular_Weight:             374.523
##########                DOCK_Rotatable_Bonds:                   7
##########                       Formal_Charge:           0.0800005
##########                     HBond_Acceptors:                   5
##########                        HBond_Donors:                   0
##########                         Heavy_Atoms:                  27
##########                          Grid_Score:          -33.124554
##########                     Grid_vdw_energy:          -32.599934
##########                      Grid_es_energy:           -0.524620
##########           Internal_energy_repulsive:           23.201109

@<TRIPOS>MOLECULE
ZINC001061022329
 61 64 1 0 0
SMALL
USER_CHARGES


@<TRIPOS>ATOM
      1 C1         -1.1066   -1.0029   47.3260 C.3     1  ZINC001061022329   -0.1500
      2 C2         -0.8188   -0.6456   48.7856 C.3     1  ZINC001061022329   -0.1200
      3 C3         -0.4754    0.8418   48.8885 C.3     1  ZINC001061022329    0.0800
      4 H4         -0.5321    1.1566   49.9305 H       1  ZINC001061022329    0.0600
      5 C5          0.9419    1.0756   48.3616 C.3     1  ZINC001061022329   -0.1800
      6 O6         -1.4039    1.6000   48.1106 O.3     1  ZINC001061022329   -0.3500
      7 C7         -2.7208    1.6498   48.6632 C.3     1  ZINC001061022329    0.0500
      8 C8         -2.8580    2.8786   49.5246 C.2     1  ZINC001061022329    0.5200
      9 O9         -1.8971    3.5921   49.7206 O.2     1  ZINC001061022329   -0.5100
     10 N10        -4.0485    3.1848   50.0772 N.am    1  ZINC001061022329   -0.6100
     11 C11        -4.1949    4.3823   50.9149 C.3     1  ZINC001061022329    0.1100
     12 C12        -4.7539    3.9639   52.2800 C.3     1  ZINC001061022329   -0.1200
     13 C13        -6.0169    3.1323   52.0694 C.3     1  ZINC001061022329   -0.0900
     14 C14        -6.7865    2.8437   53.3657 C.3     1  ZINC001061022329    0.1200
     15 N15        -8.0052    3.1353   52.5845 N.am    1  ZINC001061022329   -0.6400
     16 C16        -9.3025    2.7869   52.6943 C.2     1  ZINC001061022329    0.5400
     17 O17       -10.1086    3.1858   51.8807 O.2     1  ZINC001061022329   -0.5300
     18 C18        -9.7515    1.9015   53.8282 C.3     1  ZINC001061022329   -0.0900
     19 H19        -9.2275    2.1863   54.7406 H       1  ZINC001061022329    0.1000
     20 C20        -9.4343    0.4426   53.4923 C.3     1  ZINC001061022329   -0.1000
     21 C21       -10.7327   -0.3741   53.4742 C.3     1  ZINC001061022329   -0.0600
     22 H22       -10.5357   -1.4067   53.1860 H       1  ZINC001061022329    0.0800
     23 C23       -11.6863    0.2880   52.4906 C.2     1  ZINC001061022329   -0.1800
     24 C24       -11.9622    1.5568   52.7828 C.2     1  ZINC001061022329   -0.1300
     25 C25       -11.2629    2.0632   54.0352 C.3     1  ZINC001061022329   -0.0400
     26 H26       -11.5268    3.1023   54.2319 H       1  ZINC001061022329    0.0900
     27 C27       -11.6889    1.1630   55.2032 C.3     1  ZINC001061022329   -0.1100
     28 C28       -11.3624   -0.3099   54.8725 C.3     1  ZINC001061022329   -0.1100
     29 C29        -7.2332    3.9623   51.6357 C.3     1  ZINC001061022329    0.1100
     30 C30        -5.7842    1.8937   51.2077 C.3     1  ZINC001061022329   -0.1100
     31 C31        -5.2195    2.3289   49.8451 C.3     1  ZINC001061022329    0.1100
     32 H32        -1.9475   -0.4101   46.9659 H       1  ZINC001061022329    0.0500
     33 H33        -0.2262   -0.7904   46.7196 H       1  ZINC001061022329    0.0600
     34 H34        -1.3512   -2.0625   47.2527 H       1  ZINC001061022329    0.0600
     35 H35        -1.6992   -0.8581   49.3921 H       1  ZINC001061022329    0.0800
     36 H36         0.0221   -1.2384   49.1457 H       1  ZINC001061022329    0.0700
     37 H37         1.1865    2.1353   48.4348 H       1  ZINC001061022329    0.0600
     38 H38         1.6501    0.4974   48.9549 H       1  ZINC001061022329    0.0700
     39 H39         0.9986    0.7609   47.3195 H       1  ZINC001061022329    0.0700
     40 H40        -3.4523    1.6883   47.8561 H       1  ZINC001061022329    0.0800
     41 H41        -2.8945    0.7602   49.2689 H       1  ZINC001061022329    0.0800
     42 H42        -3.2223    4.8562   51.0480 H       1  ZINC001061022329    0.0900
     43 H43        -4.8819    5.0809   50.4372 H       1  ZINC001061022329    0.0800
     44 H44        -4.0108    3.3697   52.8116 H       1  ZINC001061022329    0.0800
     45 H45        -4.9959    4.8529   52.8627 H       1  ZINC001061022329    0.0800
     46 H46        -6.7147    1.8083   53.6985 H       1  ZINC001061022329    0.0800
     47 H47        -6.5920    3.5625   54.1618 H       1  ZINC001061022329    0.0900
     48 H48        -8.9589    0.3906   52.5127 H       1  ZINC001061022329    0.0700
     49 H49        -8.7595    0.0352   54.2452 H       1  ZINC001061022329    0.0700
     50 H50       -12.1007   -0.2241   51.6349 H       1  ZINC001061022329    0.1200
     51 H51       -12.6210    2.1700   52.1858 H       1  ZINC001061022329    0.1200
     52 H52       -11.1467    1.4545   56.1028 H       1  ZINC001061022329    0.0700
     53 H53       -12.7599    1.2718   55.3737 H       1  ZINC001061022329    0.0700
     54 H54       -12.2810   -0.8965   54.8826 H       1  ZINC001061022329    0.0700
     55 H55       -10.6714   -0.7047   55.6173 H       1  ZINC001061022329    0.0700
     56 H56        -7.1714    5.0134   51.9177 H       1  ZINC001061022329    0.0900
     57 H57        -7.5164    3.8159   50.5933 H       1  ZINC001061022329    0.0800
     58 H58        -5.0745    1.2322   51.7045 H       1  ZINC001061022329    0.0800
     59 H59        -6.7289    1.3706   51.0589 H       1  ZINC001061022329    0.0800
     60 H60        -5.9799    2.8825   49.2944 H       1  ZINC001061022329    0.0700
     61 H61        -4.9207    1.4490   49.2755 H       1  ZINC001061022329    0.1000
@<TRIPOS>BOND
     1     1     2    1
     2     1    32    1
     3     1    33    1
     4     1    34    1
     5     2     3    1
     6     2    35    1
     7     2    36    1
     8     3     4    1
     9     3     5    1
    10     3     6    1
    11     5    37    1
    12     5    38    1
    13     5    39    1
    14     6     7    1
    15     7     8    1
    16     7    40    1
    17     7    41    1
    18     8     9    2
    19     8    10   am
    20    10    31    1
    21    10    11    1
    22    11    12    1
    23    11    42    1
    24    11    43    1
    25    12    13    1
    26    12    44    1
    27    12    45    1
    28    13    29    1
    29    13    14    1
    30    13    30    1
    31    14    15    1
    32    14    46    1
    33    14    47    1
    34    15    16   am
    35    15    29    1
    36    16    17    2
    37    16    18    1
    38    18    19    1
    39    18    25    1
    40    18    20    1
    41    20    21    1
    42    20    48    1
    43    20    49    1
    44    21    22    1
    45    21    28    1
    46    21    23    1
    47    23    24    2
    48    23    50    1
    49    24    25    1
    50    24    51    1
    51    25    26    1
    52    25    27    1
    53    27    28    1
    54    27    52    1
    55    27    53    1
    56    28    54    1
    57    28    55    1
    58    29    56    1
    59    29    57    1
    60    30    31    1
    61    30    58    1
    62    30    59    1
    63    31    60    1
    64    31    61    1
@<TRIPOS>SUBSTRUCTURE
     1 ZINC001061022329        1 TEMP              0 ****  ****    0 ROOT


##########                                Name:    ZINC000854500114
##########                DOCK_Rotatable_Bonds:                   7
##########                         Heavy_Atoms:                  24
##########                    Molecular_Weight:             399.288
##########                DOCK_Rotatable_Bonds:                   7
##########                       Formal_Charge:          -0.0399992
##########                     HBond_Acceptors:                   7
##########                        HBond_Donors:                   2
##########                         Heavy_Atoms:                  24
##########                          Grid_Score:          -33.112190
##########                     Grid_vdw_energy:          -31.565329
##########                      Grid_es_energy:           -1.546863
##########           Internal_energy_repulsive:           79.797302

@<TRIPOS>MOLECULE
ZINC000854500114
 47 49 1 0 0
SMALL
USER_CHARGES


@<TRIPOS>ATOM
      1 O1         -4.8150    1.0744   50.1262 O.2     1  ZINC000854500114   -0.5800
      2 C2         -4.4217    2.1013   50.6435 C.2     1  ZINC000854500114    0.6600
      3 N3         -4.9210    2.4906   51.8333 N.am    1  ZINC000854500114   -0.7100
      4 C4         -5.9420    1.6787   52.5003 C.3     1  ZINC000854500114    0.1600
      5 C5         -6.3007    2.2988   53.8665 C.3     1  ZINC000854500114   -0.1400
      6 C6         -7.5581    3.1554   53.5764 C.3     1  ZINC000854500114   -0.1300
      7 C7         -8.3359    2.2864   52.5571 C.3     1  ZINC000854500114   -0.1300
      8 C8         -7.2360    1.6709   51.6678 C.3     1  ZINC000854500114   -0.1300
      9 O9         -3.4835    2.8473   50.0306 O.3     1  ZINC000854500114   -0.3600
     10 C10        -2.9694    2.3517   48.7663 C.3     1  ZINC000854500114    0.1000
     11 C11        -1.8618    1.3301   49.0315 C.3     1  ZINC000854500114    0.1500
     12 H12        -2.2851    0.4489   49.5134 H       1  ZINC000854500114    0.0900
     13 C13        -0.7971    1.9514   49.9411 C.3     1  ZINC000854500114   -0.1300
     14 C14         0.3733    0.9766   50.0894 C.3     1  ZINC000854500114   -0.1200
     15 C15         1.0011    0.7181   48.7179 C.3     1  ZINC000854500114   -0.1400
     16 C16        -0.0431    0.0829   47.7944 C.3     1  ZINC000854500114    0.0900
     17 N17        -1.2344    0.9428   47.7606 N.am    1  ZINC000854500114   -0.6100
     18 C18        -1.7384    1.3720   46.5865 C.2     1  ZINC000854500114    0.5900
     19 O19        -2.7249    2.0834   46.5720 O.2     1  ZINC000854500114   -0.4900
     20 C20        -1.0952    0.9799   45.3224 C.2     1  ZINC000854500114   -0.0300
     21 C21        -1.6389    0.1911   44.3235 C.2     1  ZINC000854500114   -0.1200
     22 C22        -0.6508    0.1080   43.3388 C.2     1  ZINC000854500114    0.0200
     23 Br23       -0.7829   -0.8362   41.7056 Br      1  ZINC000854500114    0.0400
     24 N24         0.3823    0.8002   43.7476 N.2     1  ZINC000854500114   -0.2400
     25 N25         0.1559    1.3264   44.8972 N.pl3   1  ZINC000854500114   -0.3700
     26 H26        -4.6043    3.3082   52.2481 H       1  ZINC000854500114    0.4000
     27 H27        -5.5788    0.6600   52.6356 H       1  ZINC000854500114    0.0900
     28 H28        -6.5300    1.5178   54.5915 H       1  ZINC000854500114    0.0800
     29 H29        -5.4858    2.9271   54.2262 H       1  ZINC000854500114    0.0700
     30 H30        -8.1432    3.3025   54.4844 H       1  ZINC000854500114    0.0700
     31 H31        -7.2802    4.1126   53.1355 H       1  ZINC000854500114    0.0700
     32 H32        -8.8939    1.5035   53.0707 H       1  ZINC000854500114    0.0700
     33 H33        -9.0063    2.9058   51.9611 H       1  ZINC000854500114    0.0700
     34 H34        -7.1044    2.2711   50.7674 H       1  ZINC000854500114    0.0700
     35 H35        -7.5013    0.6482   51.3997 H       1  ZINC000854500114    0.0800
     36 H36        -3.7757    1.8767   48.2074 H       1  ZINC000854500114    0.1000
     37 H37        -2.5663    3.1825   48.1872 H       1  ZINC000854500114    0.0700
     38 H38        -0.4412    2.8829   49.5011 H       1  ZINC000854500114    0.0800
     39 H39        -1.2290    2.1532   50.9214 H       1  ZINC000854500114    0.0900
     40 H40         1.1212    1.4059   50.7561 H       1  ZINC000854500114    0.0800
     41 H41         0.0123    0.0365   50.5066 H       1  ZINC000854500114    0.0700
     42 H42         1.3400    1.6612   48.2894 H       1  ZINC000854500114    0.0700
     43 H43         1.8491    0.0422   48.8275 H       1  ZINC000854500114    0.0800
     44 H44         0.3677   -0.0123   46.7892 H       1  ZINC000854500114    0.0800
     45 H45        -0.3164   -0.9015   48.1744 H       1  ZINC000854500114    0.0800
     46 H46        -2.6184   -0.2635   44.3084 H       1  ZINC000854500114    0.1700
     47 H47         0.7805    1.8803   45.3911 H       1  ZINC000854500114    0.4500
@<TRIPOS>BOND
     1     1     2    2
     2     2     3   am
     3     2     9    1
     4     3     4    1
     5     3    26    1
     6     4     8    1
     7     4     5    1
     8     4    27    1
     9     5     6    1
    10     5    28    1
    11     5    29    1
    12     6     7    1
    13     6    30    1
    14     6    31    1
    15     7     8    1
    16     7    32    1
    17     7    33    1
    18     8    34    1
    19     8    35    1
    20     9    10    1
    21    10    11    1
    22    10    36    1
    23    10    37    1
    24    11    12    1
    25    11    17    1
    26    11    13    1
    27    13    14    1
    28    13    38    1
    29    13    39    1
    30    14    15    1
    31    14    40    1
    32    14    41    1
    33    15    16    1
    34    15    42    1
    35    15    43    1
    36    16    17    1
    37    16    44    1
    38    16    45    1
    39    17    18   am
    40    18    19    2
    41    18    20    1
    42    20    25    1
    43    20    21    2
    44    21    22    1
    45    21    46    1
    46    22    23    1
    47    22    24    2
    48    24    25    1
    49    25    47    1
@<TRIPOS>SUBSTRUCTURE
     1 ZINC000854500114        1 TEMP              0 ****  ****    0 ROOT


##########                                Name:    ZINC001109404798
##########                DOCK_Rotatable_Bonds:                   7
##########                         Heavy_Atoms:                  25
##########                    Molecular_Weight:              360.48
##########                DOCK_Rotatable_Bonds:                   7
##########                       Formal_Charge:           0.0100002
##########                     HBond_Acceptors:                   7
##########                        HBond_Donors:                   1
##########                         Heavy_Atoms:                  25
##########                          Grid_Score:          -33.083153
##########                     Grid_vdw_energy:          -32.025837
##########                      Grid_es_energy:           -1.057315
##########           Internal_energy_repulsive:           33.532936

@<TRIPOS>MOLECULE
ZINC001109404798
 49 52 1 0 0
SMALL
USER_CHARGES


@<TRIPOS>ATOM
      1 C1         -6.5079    2.2034   50.6119 C.3     1  ZINC001109404798   -0.0600
      2 C2         -5.1096    2.7268   50.4070 C.2     1  ZINC001109404798    0.1700
      3 N3         -4.7499    3.9755   50.3946 N.2     1  ZINC001109404798   -0.3900
      4 O4         -3.5549    4.0664   50.2075 O.3     1  ZINC001109404798    0.1000
      5 C5         -3.0226    2.8474   50.0787 C.2     1  ZINC001109404798    0.1900
      6 C6         -1.5712    2.5229   49.8356 C.3     1  ZINC001109404798    0.1600
      7 H7         -1.4053    1.4575   49.9952 H       1  ZINC001109404798    0.1000
      8 C8         -0.7000    3.3253   50.8043 C.3     1  ZINC001109404798   -0.1500
      9 N9         -1.2161    2.8722   48.4536 N.3     1  ZINC001109404798   -0.4800
     10 C10        -1.9781    2.0234   47.4695 C.3     1  ZINC001109404798    0.0400
     11 H11        -3.0615    2.1431   47.4767 H       1  ZINC001109404798    0.1100
     12 C12        -1.4556    0.6013   47.8352 C.3     1  ZINC001109404798   -0.1600
     13 C13         0.0071    0.8552   48.2751 C.3     1  ZINC001109404798   -0.1600
     14 C14         0.1730    2.3967   48.1164 C.3     1  ZINC001109404798    0.0400
     15 H15         0.9823    2.8448   48.6929 H       1  ZINC001109404798    0.1200
     16 C16         0.2270    2.6411   46.5781 C.3     1  ZINC001109404798    0.1500
     17 H17         0.5219    3.6681   46.3629 H       1  ZINC001109404798    0.1000
     18 N18         1.1464    1.6973   45.9379 N.am    1  ZINC001109404798   -0.7200
     19 C19         1.6299    1.9573   44.7070 C.2     1  ZINC001109404798    0.5100
     20 O20         1.3050    2.9735   44.1300 O.2     1  ZINC001109404798   -0.5300
     21 C21         2.5742    0.9855   44.0475 C.3     1  ZINC001109404798   -0.1300
     22 C22         2.4496    1.1050   42.5273 C.3     1  ZINC001109404798   -0.0400
     23 C23         1.2657    0.3010   42.0555 C.2     1  ZINC001109404798   -0.1000
     24 C24         1.2707   -0.3770   40.9068 C.2     1  ZINC001109404798   -0.2100
     25 S25        -0.2754   -1.1882   40.6940 S.3     1  ZINC001109404798    0.1000
     26 C26        -0.8587   -0.5419   42.2221 C.2     1  ZINC001109404798   -0.2100
     27 C27         0.0927    0.2052   42.7842 C.2     1  ZINC001109404798   -0.1300
     28 C28        -1.2679    2.4038   46.1353 C.3     1  ZINC001109404798   -0.1100
     29 N29        -4.0038    1.9872   50.2093 N.2     1  ZINC001109404798   -0.4800
     30 H30        -6.6846    2.0459   51.6759 H       1  ZINC001109404798    0.0900
     31 H31        -7.2267    2.9271   50.2275 H       1  ZINC001109404798    0.0900
     32 H32        -6.6237    1.2589   50.0806 H       1  ZINC001109404798    0.0900
     33 H33        -0.9635    3.0661   51.8298 H       1  ZINC001109404798    0.0700
     34 H34         0.3498    3.0906   50.6285 H       1  ZINC001109404798    0.0800
     35 H35        -0.8659    4.3908   50.6448 H       1  ZINC001109404798    0.0800
     36 H36        -2.0354    0.1789   48.6559 H       1  ZINC001109404798    0.0700
     37 H37        -1.4863   -0.0543   46.9650 H       1  ZINC001109404798    0.0800
     38 H38         0.1523    0.5585   49.3139 H       1  ZINC001109404798    0.0700
     39 H39         0.7013    0.3253   47.6230 H       1  ZINC001109404798    0.0800
     40 H40         1.4071    0.8851   46.3997 H       1  ZINC001109404798    0.4000
     41 H41         3.5973    1.2128   44.3473 H       1  ZINC001109404798    0.0900
     42 H42         2.3230   -0.0300   44.3539 H       1  ZINC001109404798    0.1000
     43 H43         2.3100    2.1513   42.2554 H       1  ZINC001109404798    0.0800
     44 H44         3.3570    0.7255   42.0575 H       1  ZINC001109404798    0.0800
     45 H45         2.0974   -0.4208   40.2132 H       1  ZINC001109404798    0.1600
     46 H46        -1.8361   -0.7258   42.6433 H       1  ZINC001109404798    0.1600
     47 H47        -0.0447    0.7041   43.7322 H       1  ZINC001109404798    0.1400
     48 H48        -1.3329    1.5719   45.4338 H       1  ZINC001109404798    0.0800
     49 H49        -1.6870    3.3098   45.6977 H       1  ZINC001109404798    0.0900
@<TRIPOS>BOND
     1     1     2    1
     2     1    30    1
     3     1    31    1
     4     1    32    1
     5     2    29    1
     6     2     3    2
     7     3     4    1
     8     4     5    1
     9     5     6    1
    10     5    29    2
    11     6     7    1
    12     6     8    1
    13     6     9    1
    14     8    33    1
    15     8    34    1
    16     8    35    1
    17     9    14    1
    18     9    10    1
    19    10    11    1
    20    10    28    1
    21    10    12    1
    22    12    13    1
    23    12    36    1
    24    12    37    1
    25    13    14    1
    26    13    38    1
    27    13    39    1
    28    14    15    1
    29    14    16    1
    30    16    17    1
    31    16    18    1
    32    16    28    1
    33    18    19   am
    34    18    40    1
    35    19    20    2
    36    19    21    1
    37    21    22    1
    38    21    41    1
    39    21    42    1
    40    22    23    1
    41    22    43    1
    42    22    44    1
    43    23    27    1
    44    23    24    2
    45    24    25    1
    46    24    45    1
    47    25    26    1
    48    26    27    2
    49    26    46    1
    50    27    47    1
    51    28    48    1
    52    28    49    1
@<TRIPOS>SUBSTRUCTURE
     1 ZINC001109404798        1 TEMP              0 ****  ****    0 ROOT


##########                                Name:    ZINC001492779707
##########                DOCK_Rotatable_Bonds:                   8
##########                         Heavy_Atoms:                  27
##########                    Molecular_Weight:             374.483
##########                DOCK_Rotatable_Bonds:                   8
##########                       Formal_Charge:           0.0199998
##########                     HBond_Acceptors:                   7
##########                        HBond_Donors:                   0
##########                         Heavy_Atoms:                  27
##########                          Grid_Score:          -33.081440
##########                     Grid_vdw_energy:          -33.054958
##########                      Grid_es_energy:           -0.026481
##########           Internal_energy_repulsive:           14.120662

@<TRIPOS>MOLECULE
ZINC001492779707
 57 59 1 0 0
SMALL
USER_CHARGES


@<TRIPOS>ATOM
      1 C1          3.0106    2.1040   44.6558 C.3     1  ZINC001492779707   -0.0700
      2 C2          2.3696    1.4778   45.8673 C.2     1  ZINC001492779707    0.1800
      3 N3          2.9052    0.5831   46.6487 N.2     1  ZINC001492779707   -0.2900
      4 N4          2.0835    0.2675   47.5854 N.2     1  ZINC001492779707   -0.3100
      5 C5          0.9708    0.9498   47.4508 C.2     1  ZINC001492779707    0.3400
      6 N6         -0.1439    0.8780   48.2712 N.3     1  ZINC001492779707   -0.4600
      7 C7         -0.8568   -0.3923   48.0807 C.3     1  ZINC001492779707    0.0300
      8 C8          0.2263    1.0678   49.6800 C.3     1  ZINC001492779707    0.1100
      9 C9         -0.4425    2.3089   50.2123 C.ar    1  ZINC001492779707   -0.0400
     10 C10         0.2777    3.4825   50.3363 C.ar    1  ZINC001492779707   -0.1300
     11 C11        -0.3331    4.6231   50.8243 C.ar    1  ZINC001492779707   -0.0800
     12 C12        -1.6648    4.5925   51.1892 C.ar    1  ZINC001492779707   -0.2100
     13 C13        -2.3899    3.4159   51.0657 C.ar    1  ZINC001492779707    0.1300
     14 O14        -3.7006    3.3833   51.4237 O.3     1  ZINC001492779707   -0.3100
     15 C15        -4.6554    3.7436   50.4233 C.3     1  ZINC001492779707    0.0800
     16 C16        -5.5841    2.5577   50.1543 C.3     1  ZINC001492779707   -0.1500
     17 C17        -5.4797    4.9366   50.9111 C.3     1  ZINC001492779707   -0.1800
     18 C18        -1.7765    2.2746   50.5707 C.ar    1  ZINC001492779707   -0.1400
     19 N19         1.1206    1.7475   46.3540 N.pl3   1  ZINC001492779707   -0.4600
     20 C20         0.1424    2.6904   45.8058 C.3     1  ZINC001492779707    0.1200
     21 C21        -1.0773    1.9207   45.2952 C.3     1  ZINC001492779707   -0.1200
     22 C22        -0.6135    0.7301   44.4537 C.3     1  ZINC001492779707    0.0600
     23 H23         0.0538    0.1036   45.0455 H       1  ZINC001492779707    0.0800
     24 C24        -1.8294   -0.0902   44.0136 C.3     1  ZINC001492779707    0.0300
     25 O25        -1.3982   -1.1352   43.1365 O.3     1  ZINC001492779707   -0.3800
     26 C26        -0.7074   -0.6607   41.9769 C.3     1  ZINC001492779707    0.0200
     27 C27         0.5086    0.1595   42.4169 C.3     1  ZINC001492779707    0.0300
     28 O28         0.0786    1.2045   43.2948 O.3     1  ZINC001492779707   -0.3800
     29 H29         3.5562    2.9990   44.9550 H       1  ZINC001492779707    0.0900
     30 H30         3.7004    1.3929   44.2012 H       1  ZINC001492779707    0.1000
     31 H31         2.2388    2.3732   43.9347 H       1  ZINC001492779707    0.0800
     32 H32        -0.2306   -1.2155   48.4249 H       1  ZINC001492779707    0.0500
     33 H33        -1.7845   -0.3777   48.6527 H       1  ZINC001492779707    0.0900
     34 H34        -1.0840   -0.5263   47.0231 H       1  ZINC001492779707    0.0700
     35 H35        -0.0970    0.2036   50.2603 H       1  ZINC001492779707    0.0700
     36 H36         1.3080    1.1751   49.7602 H       1  ZINC001492779707    0.0900
     37 H37         1.3193    3.5083   50.0518 H       1  ZINC001492779707    0.1200
     38 H38         0.2319    5.5385   50.9206 H       1  ZINC001492779707    0.1300
     39 H39        -2.1414    5.4834   51.5707 H       1  ZINC001492779707    0.1300
     40 H40        -4.1348    4.0130   49.5044 H       1  ZINC001492779707    0.0700
     41 H41        -6.1048    2.2883   51.0732 H       1  ZINC001492779707    0.0700
     42 H42        -6.3124    2.8325   49.3912 H       1  ZINC001492779707    0.0800
     43 H43        -4.9968    1.7078   49.8068 H       1  ZINC001492779707    0.0700
     44 H44        -4.8181    5.7814   51.1028 H       1  ZINC001492779707    0.0600
     45 H45        -6.2080    5.2113   50.1479 H       1  ZINC001492779707    0.0700
     46 H46        -6.0004    4.6671   51.8300 H       1  ZINC001492779707    0.0700
     47 H47        -2.3387    1.3576   50.4736 H       1  ZINC001492779707    0.1300
     48 H48        -0.1673    3.3868   46.5850 H       1  ZINC001492779707    0.1000
     49 H49         0.5935    3.2439   44.9822 H       1  ZINC001492779707    0.1000
     50 H50        -1.6610    1.5612   46.1427 H       1  ZINC001492779707    0.0900
     51 H51        -1.6931    2.5801   44.6836 H       1  ZINC001492779707    0.0800
     52 H52        -2.3116   -0.5252   44.8891 H       1  ZINC001492779707    0.1100
     53 H53        -2.5350    0.5558   43.4912 H       1  ZINC001492779707    0.0600
     54 H54        -0.3770   -1.5091   41.3773 H       1  ZINC001492779707    0.1100
     55 H55        -1.3752   -0.0340   41.3860 H       1  ZINC001492779707    0.0600
     56 H56         1.2142   -0.4865   42.9394 H       1  ZINC001492779707    0.0600
     57 H57         0.9907    0.5946   41.5415 H       1  ZINC001492779707    0.1100
@<TRIPOS>BOND
     1     1     2    1
     2     1    29    1
     3     1    30    1
     4     1    31    1
     5     2    19    1
     6     2     3    2
     7     3     4    1
     8     4     5    2
     9     5     6    1
    10     5    19    1
    11     6     7    1
    12     6     8    1
    13     7    32    1
    14     7    33    1
    15     7    34    1
    16     8     9    1
    17     8    35    1
    18     8    36    1
    19     9    18   ar
    20     9    10   ar
    21    10    11   ar
    22    10    37    1
    23    11    12   ar
    24    11    38    1
    25    12    13   ar
    26    12    39    1
    27    13    14    1
    28    13    18   ar
    29    14    15    1
    30    15    16    1
    31    15    17    1
    32    15    40    1
    33    16    41    1
    34    16    42    1
    35    16    43    1
    36    17    44    1
    37    17    45    1
    38    17    46    1
    39    18    47    1
    40    19    20    1
    41    20    21    1
    42    20    48    1
    43    20    49    1
    44    21    22    1
    45    21    50    1
    46    21    51    1
    47    22    23    1
    48    22    28    1
    49    22    24    1
    50    24    25    1
    51    24    52    1
    52    24    53    1
    53    25    26    1
    54    26    27    1
    55    26    54    1
    56    26    55    1
    57    27    28    1
    58    27    56    1
    59    27    57    1
@<TRIPOS>SUBSTRUCTURE
     1 ZINC001492779707        1 TEMP              0 ****  ****    0 ROOT


##########                                Name:    ZINC000457806032
##########                DOCK_Rotatable_Bonds:                   8
##########                         Heavy_Atoms:                  24
##########                    Molecular_Weight:             387.911
##########                DOCK_Rotatable_Bonds:                   8
##########                       Formal_Charge:        -1.49012e-07
##########                     HBond_Acceptors:                   9
##########                        HBond_Donors:                   2
##########                         Heavy_Atoms:                  24
##########                          Grid_Score:          -33.061474
##########                     Grid_vdw_energy:          -34.577221
##########                      Grid_es_energy:            1.515746
##########           Internal_energy_repulsive:            8.240366

@<TRIPOS>MOLECULE
ZINC000457806032
 42 43 1 0 0
SMALL
USER_CHARGES


@<TRIPOS>ATOM
      1 C1         -9.8565    1.5398   52.8029 C.3     1  ZINC000457806032    0.0800
      2 N2         -8.5126    1.6294   53.3794 N.am    1  ZINC000457806032   -1.0100
      3 C3         -8.3245    2.2072   54.7124 C.3     1  ZINC000457806032    0.0900
      4 S4         -7.2062    1.0776   52.5243 S.o2    1  ZINC000457806032    2.7900
      5 O5         -6.0543    1.4391   53.2738 O.2     1  ZINC000457806032   -0.9700
      6 O6         -7.5048   -0.2619   52.1555 O.2     1  ZINC000457806032   -0.9700
      7 N7         -7.1396    1.9465   51.1161 N.am    1  ZINC000457806032   -1.1300
      8 C8         -6.0782    1.6820   50.1416 C.3     1  ZINC000457806032    0.1100
      9 C9         -4.8478    2.5232   50.4868 C.3     1  ZINC000457806032    0.1100
     10 N10        -3.7991    2.2859   49.4917 N.am    1  ZINC000457806032   -0.7300
     11 C11        -2.5177    2.5904   49.7774 C.2     1  ZINC000457806032    0.5800
     12 O12        -2.2316    3.0609   50.8619 O.2     1  ZINC000457806032   -0.5300
     13 C13        -1.4640    2.3535   48.7765 C.2     1  ZINC000457806032   -0.1500
     14 C14        -0.1604    2.6947   48.9765 C.2     1  ZINC000457806032   -0.2200
     15 S15         0.7826    2.2783   47.6173 S.3     1  ZINC000457806032    0.2400
     16 C16        -0.6164    1.6340   46.7721 C.2     1  ZINC000457806032   -0.1700
     17 C17        -0.5909    1.0415   45.4173 C.ar    1  ZINC000457806032   -0.0100
     18 C18        -1.7854    0.7734   44.7477 C.ar    1  ZINC000457806032   -0.0900
     19 C19        -1.7556    0.2205   43.4841 C.ar    1  ZINC000457806032   -0.1000
     20 C20        -0.5434   -0.0687   42.8806 C.ar    1  ZINC000457806032   -0.0300
     21 Cl21       -0.5136   -0.7648   41.2906 Cl      1  ZINC000457806032   -0.0600
     22 C22         0.6451    0.1956   43.5400 C.ar    1  ZINC000457806032   -0.1000
     23 C23         0.6277    0.7536   44.8015 C.ar    1  ZINC000457806032   -0.1000
     24 C24        -1.7107    1.7538   47.5404 C.2     1  ZINC000457806032   -0.0700
     25 H25       -10.0716    2.4480   52.2398 H       1  ZINC000457806032    0.0600
     26 H26        -9.9094    0.6784   52.1370 H       1  ZINC000457806032    0.0800
     27 H27       -10.5882    1.4262   53.6028 H       1  ZINC000457806032    0.0800
     28 H28        -8.3960    1.4201   55.4630 H       1  ZINC000457806032    0.0600
     29 H29        -7.3422    2.6760   54.7699 H       1  ZINC000457806032    0.0700
     30 H30        -9.0955    2.9555   54.8962 H       1  ZINC000457806032    0.0700
     31 H31        -7.8035    2.6305   50.9365 H       1  ZINC000457806032    0.4200
     32 H32        -5.8148    0.6246   50.1694 H       1  ZINC000457806032    0.0700
     33 H33        -6.4284    1.9431   49.1430 H       1  ZINC000457806032    0.0900
     34 H34        -5.1176    3.5793   50.4854 H       1  ZINC000457806032    0.0800
     35 H35        -4.4816    2.2431   51.4745 H       1  ZINC000457806032    0.0800
     36 H36        -4.0271    1.9094   48.6272 H       1  ZINC000457806032    0.4000
     37 H37         0.2226    3.1635   49.8709 H       1  ZINC000457806032    0.1700
     38 H38        -2.7315    0.9979   45.2178 H       1  ZINC000457806032    0.1400
     39 H39        -2.6794    0.0127   42.9649 H       1  ZINC000457806032    0.1400
     40 H40         1.5875   -0.0321   43.0643 H       1  ZINC000457806032    0.1400
     41 H41         1.5553    0.9597   45.3149 H       1  ZINC000457806032    0.1300
     42 H42        -2.6909    1.4246   47.2283 H       1  ZINC000457806032    0.1600
@<TRIPOS>BOND
     1     1     2    1
     2     1    25    1
     3     1    26    1
     4     1    27    1
     5     2     3    1
     6     2     4   am
     7     3    28    1
     8     3    29    1
     9     3    30    1
    10     4     5    2
    11     4     6    2
    12     4     7   am
    13     7     8    1
    14     7    31    1
    15     8     9    1
    16     8    32    1
    17     8    33    1
    18     9    10    1
    19     9    34    1
    20     9    35    1
    21    10    11   am
    22    10    36    1
    23    11    12    2
    24    11    13    1
    25    13    24    1
    26    13    14    2
    27    14    15    1
    28    14    37    1
    29    15    16    1
    30    16    17    1
    31    16    24    2
    32    17    23   ar
    33    17    18   ar
    34    18    19   ar
    35    18    38    1
    36    19    20   ar
    37    19    39    1
    38    20    21    1
    39    20    22   ar
    40    22    23   ar
    41    22    40    1
    42    23    41    1
    43    24    42    1
@<TRIPOS>SUBSTRUCTURE
     1 ZINC000457806032        1 TEMP              0 ****  ****    0 ROOT


##########                                Name:    ZINC000011157684
##########                DOCK_Rotatable_Bonds:                   7
##########                         Heavy_Atoms:                  25
##########                    Molecular_Weight:             374.866
##########                DOCK_Rotatable_Bonds:                   7
##########                       Formal_Charge:           0.0400001
##########                     HBond_Acceptors:                   6
##########                        HBond_Donors:                   2
##########                         Heavy_Atoms:                  25
##########                          Grid_Score:          -33.059982
##########                     Grid_vdw_energy:          -33.468021
##########                      Grid_es_energy:            0.408038
##########           Internal_energy_repulsive:           13.805057

@<TRIPOS>MOLECULE
ZINC000011157684
 41 43 1 0 0
SMALL
USER_CHARGES


@<TRIPOS>ATOM
      1 O1         -1.6851    0.8400   48.7108 O.2     1  ZINC000011157684   -0.5200
      2 C2         -2.3759    1.5727   48.0348 C.2     1  ZINC000011157684    0.5100
      3 C3         -2.1950    1.6107   46.5392 C.3     1  ZINC000011157684    0.1000
      4 N4         -1.6779    0.3203   46.0769 N.pl3   1  ZINC000011157684   -0.7300
      5 C5         -0.8717    0.2581   44.9352 C.ar    1  ZINC000011157684    0.2200
      6 C6         -1.4202   -0.1173   43.7167 C.ar    1  ZINC000011157684   -0.1600
      7 C7         -0.6224   -0.1776   42.5901 C.ar    1  ZINC000011157684   -0.0900
      8 C8          0.7233    0.1354   42.6757 C.ar    1  ZINC000011157684    0.0500
      9 F9          1.5013    0.0751   41.5728 F       1  ZINC000011157684   -0.1400
     10 C10         1.2734    0.5107   43.8900 C.ar    1  ZINC000011157684   -0.0900
     11 C11         0.4785    0.5776   45.0183 C.ar    1  ZINC000011157684   -0.0900
     12 Cl12        1.1681    1.0480   46.5404 Cl      1  ZINC000011157684   -0.0500
     13 N13        -3.3092    2.3488   48.6206 N.am    1  ZINC000011157684   -0.7200
     14 C14        -3.4850    2.3119   50.0745 C.3     1  ZINC000011157684    0.2600
     15 H15        -3.2265    1.3205   50.4468 H       1  ZINC000011157684    0.1200
     16 C16        -4.9209    2.6175   50.4149 C.2     1  ZINC000011157684   -0.1900
     17 C17        -5.4680    3.8340   50.4190 C.2     1  ZINC000011157684   -0.1200
     18 C18        -6.8080    3.8697   50.7646 C.2     1  ZINC000011157684   -0.1300
     19 C19        -7.3490    2.6823   51.0411 C.2     1  ZINC000011157684   -0.2100
     20 S20        -6.1336    1.4238   50.8600 S.3     1  ZINC000011157684    0.1100
     21 C21        -2.5873    3.3388   50.7153 C.ar    1  ZINC000011157684   -0.0900
     22 C22        -2.9043    3.8546   51.9580 C.ar    1  ZINC000011157684   -0.1100
     23 C23        -2.0808    4.7966   52.5458 C.ar    1  ZINC000011157684   -0.1100
     24 C24        -0.9402    5.2223   51.8912 C.ar    1  ZINC000011157684   -0.1100
     25 C25        -0.6228    4.7058   50.6489 C.ar    1  ZINC000011157684   -0.1100
     26 C26        -1.4439    3.7607   50.0629 C.ar    1  ZINC000011157684   -0.1000
     27 H27        -3.1547    1.8095   46.0620 H       1  ZINC000011157684    0.1000
     28 H28        -1.4893    2.3994   46.2784 H       1  ZINC000011157684    0.1000
     29 H29        -1.8945   -0.4910   46.5624 H       1  ZINC000011157684    0.4200
     30 H30        -2.4699   -0.3623   43.6491 H       1  ZINC000011157684    0.1400
     31 H31        -1.0491   -0.4696   41.6420 H       1  ZINC000011157684    0.1400
     32 H32         2.3235    0.7548   43.9544 H       1  ZINC000011157684    0.1500
     33 H33        -3.8643    2.9319   48.0795 H       1  ZINC000011157684    0.4000
     34 H34        -4.9079    4.7237   50.1718 H       1  ZINC000011157684    0.1400
     35 H35        -7.3724    4.7895   50.8074 H       1  ZINC000011157684    0.1400
     36 H36        -8.3770    2.5182   51.3286 H       1  ZINC000011157684    0.1700
     37 H37        -3.7954    3.5221   52.4695 H       1  ZINC000011157684    0.1200
     38 H38        -2.3289    5.2002   53.5165 H       1  ZINC000011157684    0.1300
     39 H39        -0.2971    5.9588   52.3502 H       1  ZINC000011157684    0.1300
     40 H40         0.2682    5.0387   50.1373 H       1  ZINC000011157684    0.1300
     41 H41        -1.1959    3.3571   49.0924 H       1  ZINC000011157684    0.1300
@<TRIPOS>BOND
     1     1     2    2
     2     2     3    1
     3     2    13   am
     4     3     4    1
     5     3    27    1
     6     3    28    1
     7     4     5    1
     8     4    29    1
     9     5    11   ar
    10     5     6   ar
    11     6     7   ar
    12     6    30    1
    13     7     8   ar
    14     7    31    1
    15     8     9    1
    16     8    10   ar
    17    10    11   ar
    18    10    32    1
    19    11    12    1
    20    13    14    1
    21    13    33    1
    22    14    15    1
    23    14    16    1
    24    14    21    1
    25    16    20    1
    26    16    17    2
    27    17    18    1
    28    17    34    1
    29    18    19    2
    30    18    35    1
    31    19    20    1
    32    19    36    1
    33    21    26   ar
    34    21    22   ar
    35    22    23   ar
    36    22    37    1
    37    23    24   ar
    38    23    38    1
    39    24    25   ar
    40    24    39    1
    41    25    26   ar
    42    25    40    1
    43    26    41    1
@<TRIPOS>SUBSTRUCTURE
     1 ZINC000011157684        1 TEMP              0 ****  ****    0 ROOT


##########                                Name:    ZINC001341052241
##########                DOCK_Rotatable_Bonds:                   7
##########                         Heavy_Atoms:                  24
##########                    Molecular_Weight:             336.478
##########                DOCK_Rotatable_Bonds:                   7
##########                       Formal_Charge:         5.96046e-08
##########                     HBond_Acceptors:                   6
##########                        HBond_Donors:                   0
##########                         Heavy_Atoms:                  24
##########                          Grid_Score:          -33.035572
##########                     Grid_vdw_energy:          -31.677320
##########                      Grid_es_energy:           -1.358252
##########           Internal_energy_repulsive:           14.840084

@<TRIPOS>MOLECULE
ZINC001341052241
 56 58 1 0 0
SMALL
USER_CHARGES


@<TRIPOS>ATOM
      1 C1         -3.8578    4.9695   52.5301 C.3     1  ZINC001341052241   -0.1700
      2 C2         -3.6630    3.4519   52.5315 C.3     1  ZINC001341052241    0.1100
      3 N3         -4.1747    2.8928   51.2779 N.pl3   1  ZINC001341052241   -0.4500
      4 C4         -3.5333    2.8488   50.0710 C.2     1  ZINC001341052241    0.1800
      5 C5         -2.1509    3.3705   49.7746 C.3     1  ZINC001341052241    0.1500
      6 O6         -1.7139    2.8696   48.5097 O.3     1  ZINC001341052241   -0.3700
      7 C7         -1.5857    1.4472   48.4606 C.3     1  ZINC001341052241    0.0900
      8 C8         -0.4019    1.0116   49.3264 C.3     1  ZINC001341052241   -0.1400
      9 C9         -0.2648   -0.5113   49.2740 C.3     1  ZINC001341052241   -0.1200
     10 C10        -0.0288   -0.9527   47.8281 C.3     1  ZINC001341052241   -0.1200
     11 C11        -1.2127   -0.5170   46.9624 C.3     1  ZINC001341052241   -0.1200
     12 C12        -1.3498    1.0059   47.0148 C.3     1  ZINC001341052241   -0.1200
     13 N13        -4.3386    2.2715   49.2250 N.2     1  ZINC001341052241   -0.2600
     14 N14        -5.4345    1.9451   49.8119 N.2     1  ZINC001341052241   -0.3100
     15 C15        -5.3904    2.3083   51.0722 C.2     1  ZINC001341052241    0.3500
     16 N16        -6.3877    2.1271   52.0170 N.3     1  ZINC001341052241   -0.4600
     17 C17        -7.5331    3.0060   51.7484 C.3     1  ZINC001341052241    0.0700
     18 C18        -8.5482    2.8857   52.8873 C.3     1  ZINC001341052241   -0.1100
     19 C19        -9.0125    1.4310   52.9991 C.3     1  ZINC001341052241   -0.0900
     20 C20        -9.9815    1.2925   54.1751 C.3     1  ZINC001341052241    0.0700
     21 O21       -10.5728   -0.0083   54.1545 O.3     1  ZINC001341052241   -0.3900
     22 C22       -11.7300   -0.1076   53.3219 C.3     1  ZINC001341052241    0.0300
     23 C23        -7.7953    0.5313   53.2304 C.3     1  ZINC001341052241   -0.1100
     24 C24        -6.8021    0.7197   52.0816 C.3     1  ZINC001341052241    0.0700
     25 H25        -3.3244    5.4034   51.6844 H       1  ZINC001341052241    0.0600
     26 H26        -4.9199    5.1994   52.4466 H       1  ZINC001341052241    0.0700
     27 H27        -3.4677    5.3867   53.4586 H       1  ZINC001341052241    0.0800
     28 H28        -4.2048    3.0169   53.3713 H       1  ZINC001341052241    0.0900
     29 H29        -2.6017    3.2219   52.6255 H       1  ZINC001341052241    0.1000
     30 H30        -2.1720    4.4599   49.7463 H       1  ZINC001341052241    0.0900
     31 H31        -1.4634    3.0405   50.5534 H       1  ZINC001341052241    0.0700
     32 H32        -2.4996    0.9869   48.8364 H       1  ZINC001341052241    0.0600
     33 H33         0.5119    1.4719   48.9506 H       1  ZINC001341052241    0.0700
     34 H34        -0.5700    1.3259   50.3565 H       1  ZINC001341052241    0.0700
     35 H35        -1.1786   -0.9716   49.6498 H       1  ZINC001341052241    0.0600
     36 H36         0.5787   -0.8216   49.8908 H       1  ZINC001341052241    0.0700
     37 H37         0.0689   -2.0376   47.7908 H       1  ZINC001341052241    0.0600
     38 H38         0.8849   -0.4923   47.4523 H       1  ZINC001341052241    0.0600
     39 H39        -2.1265   -0.9774   47.3381 H       1  ZINC001341052241    0.0600
     40 H40        -1.0445   -0.8314   45.9323 H       1  ZINC001341052241    0.0700
     41 H41        -2.1933    1.3162   46.3980 H       1  ZINC001341052241    0.0700
     42 H42        -0.4360    1.4661   46.6389 H       1  ZINC001341052241    0.0700
     43 H43        -8.0037    2.7127   50.8100 H       1  ZINC001341052241    0.0600
     44 H44        -7.1897    4.0379   51.6754 H       1  ZINC001341052241    0.0800
     45 H45        -9.4052    3.5264   52.6800 H       1  ZINC001341052241    0.0800
     46 H46        -8.0822    3.1920   53.8240 H       1  ZINC001341052241    0.0800
     47 H47        -9.5142    1.1369   52.0772 H       1  ZINC001341052241    0.0800
     48 H48       -10.7629    2.0480   54.0929 H       1  ZINC001341052241    0.0500
     49 H49        -9.4396    1.4305   55.1107 H       1  ZINC001341052241    0.0500
     50 H50       -12.4923    0.5868   53.6750 H       1  ZINC001341052241    0.0400
     51 H51       -12.1192   -1.1250   53.3606 H       1  ZINC001341052241    0.0900
     52 H52       -11.4609    0.1397   52.2950 H       1  ZINC001341052241    0.0400
     53 H53        -7.3176    0.8005   54.1725 H       1  ZINC001341052241    0.0700
     54 H54        -8.1147   -0.5102   53.2683 H       1  ZINC001341052241    0.0800
     55 H55        -7.2761    0.4372   51.1416 H       1  ZINC001341052241    0.0600
     56 H56        -5.9278    0.0911   52.2506 H       1  ZINC001341052241    0.0800
@<TRIPOS>BOND
     1     1     2    1
     2     1    25    1
     3     1    26    1
     4     1    27    1
     5     2     3    1
     6     2    28    1
     7     2    29    1
     8     3    15    1
     9     3     4    1
    10     4     5    1
    11     4    13    2
    12     5     6    1
    13     5    30    1
    14     5    31    1
    15     6     7    1
    16     7    12    1
    17     7     8    1
    18     7    32    1
    19     8     9    1
    20     8    33    1
    21     8    34    1
    22     9    10    1
    23     9    35    1
    24     9    36    1
    25    10    11    1
    26    10    37    1
    27    10    38    1
    28    11    12    1
    29    11    39    1
    30    11    40    1
    31    12    41    1
    32    12    42    1
    33    13    14    1
    34    14    15    2
    35    15    16    1
    36    16    24    1
    37    16    17    1
    38    17    18    1
    39    17    43    1
    40    17    44    1
    41    18    19    1
    42    18    45    1
    43    18    46    1
    44    19    20    1
    45    19    23    1
    46    19    47    1
    47    20    21    1
    48    20    48    1
    49    20    49    1
    50    21    22    1
    51    22    50    1
    52    22    51    1
    53    22    52    1
    54    23    24    1
    55    23    53    1
    56    23    54    1
    57    24    55    1
    58    24    56    1
@<TRIPOS>SUBSTRUCTURE
     1 ZINC001341052241        1 TEMP              0 ****  ****    0 ROOT


##########                                Name:    ZINC000463741321
##########                DOCK_Rotatable_Bonds:                   7
##########                         Heavy_Atoms:                  26
##########                    Molecular_Weight:             354.467
##########                DOCK_Rotatable_Bonds:                   7
##########                       Formal_Charge:         -6.4075e-07
##########                     HBond_Acceptors:                   4
##########                        HBond_Donors:                   1
##########                         Heavy_Atoms:                  26
##########                          Grid_Score:          -33.031467
##########                     Grid_vdw_energy:          -32.066891
##########                      Grid_es_energy:           -0.964577
##########           Internal_energy_repulsive:           13.440220

@<TRIPOS>MOLECULE
ZINC000463741321
 53 55 1 0 0
SMALL
USER_CHARGES


@<TRIPOS>ATOM
      1 C1         -7.3390   -0.3373   52.3186 C.3     1  ZINC000463741321   -0.1500
      2 C2         -7.5890    1.1704   52.3916 C.3     1  ZINC000463741321   -0.1100
      3 H3         -8.6170    1.3829   52.0980 H       1  ZINC000463741321    0.1000
      4 C4         -7.3564    1.6572   53.8233 C.3     1  ZINC000463741321   -0.0900
      5 C5         -8.5591    1.2819   54.6913 C.3     1  ZINC000463741321   -0.0800
      6 C6         -8.2172    1.4964   56.1432 C.ar    1  ZINC000463741321   -0.1200
      7 C7         -7.4265    2.5663   56.5163 C.ar    1  ZINC000463741321   -0.0900
      8 C8         -7.1125    2.7634   57.8483 C.ar    1  ZINC000463741321   -0.1300
      9 C9         -7.5889    1.8903   58.8082 C.ar    1  ZINC000463741321   -0.1000
     10 C10        -8.3797    0.8191   58.4373 C.ar    1  ZINC000463741321   -0.1500
     11 C11        -8.7001    0.6246   57.1047 C.ar    1  ZINC000463741321    0.1000
     12 F12        -9.4730   -0.4222   56.7410 F       1  ZINC000463741321   -0.1400
     13 C13        -6.6431    1.8822   51.4590 C.2     1  ZINC000463741321    0.5200
     14 O14        -6.9580    2.0699   50.3029 O.2     1  ZINC000463741321   -0.5300
     15 N15        -5.4472    2.3103   51.9097 N.am    1  ZINC000463741321   -0.7300
     16 C16        -4.5270    3.0008   51.0026 C.3     1  ZINC000463741321    0.1500
     17 H17        -5.0918    3.6602   50.3437 H       1  ZINC000463741321    0.1000
     18 C18        -3.5284    3.8264   51.8185 C.3     1  ZINC000463741321   -0.1300
     19 C19        -2.5338    4.4963   50.8663 C.3     1  ZINC000463741321   -0.1200
     20 C20        -1.8303    3.4226   50.0331 C.3     1  ZINC000463741321    0.0600
     21 N21        -2.8282    2.6610   49.2709 N.3     1  ZINC000463741321   -0.4800
     22 C22        -2.2116    1.7600   48.3998 C.ar    1  ZINC000463741321    0.1100
     23 C23        -2.4519    1.8371   47.0337 C.ar    1  ZINC000463741321   -0.1700
     24 C24        -1.8402    0.9450   46.1751 C.ar    1  ZINC000463741321   -0.0900
     25 C25        -0.9897   -0.0247   46.6740 C.ar    1  ZINC000463741321   -0.1500
     26 C26        -0.7483   -0.1042   48.0332 C.ar    1  ZINC000463741321   -0.0900
     27 C27        -1.3522    0.7883   48.8969 C.ar    1  ZINC000463741321   -0.1400
     28 C28        -3.7665    1.9704   50.1647 C.3     1  ZINC000463741321    0.0500
     29 H29        -6.3109   -0.5498   52.6120 H       1  ZINC000463741321    0.0600
     30 H30        -8.0232   -0.8521   52.9930 H       1  ZINC000463741321    0.0700
     31 H31        -7.5047   -0.6841   51.2986 H       1  ZINC000463741321    0.0600
     32 H32        -6.4580    1.1885   54.2250 H       1  ZINC000463741321    0.0700
     33 H33        -7.2321    2.7401   53.8231 H       1  ZINC000463741321    0.0700
     34 H34        -9.4105    1.9071   54.4223 H       1  ZINC000463741321    0.0800
     35 H35        -8.8119    0.2343   54.5285 H       1  ZINC000463741321    0.0800
     36 H36        -7.0531    3.2487   55.7671 H       1  ZINC000463741321    0.1300
     37 H37        -6.4943    3.5999   58.1389 H       1  ZINC000463741321    0.1300
     38 H38        -7.3428    2.0450   59.8484 H       1  ZINC000463741321    0.1300
     39 H39        -8.7512    0.1367   59.1875 H       1  ZINC000463741321    0.1400
     40 H40        -5.1959    2.1613   52.8346 H       1  ZINC000463741321    0.4000
     41 H41        -4.0629    4.5902   52.3833 H       1  ZINC000463741321    0.0700
     42 H42        -2.9910    3.1729   52.5057 H       1  ZINC000463741321    0.0600
     43 H43        -3.0669    5.1792   50.2048 H       1  ZINC000463741321    0.0800
     44 H44        -1.7944    5.0512   51.4439 H       1  ZINC000463741321    0.0800
     45 H45        -1.1319    3.8973   49.3441 H       1  ZINC000463741321    0.0900
     46 H46        -1.2862    2.7482   50.6943 H       1  ZINC000463741321    0.0500
     47 H47        -3.1165    2.5937   46.6437 H       1  ZINC000463741321    0.1200
     48 H48        -2.0266    1.0044   45.1131 H       1  ZINC000463741321    0.1200
     49 H49        -0.5132   -0.7216   46.0004 H       1  ZINC000463741321    0.1200
     50 H50        -0.0835   -0.8628   48.4195 H       1  ZINC000463741321    0.1200
     51 H51        -1.1631    0.7259   49.9583 H       1  ZINC000463741321    0.1300
     52 H52        -3.2138    1.3027   50.8257 H       1  ZINC000463741321    0.0500
     53 H53        -4.4734    1.3905   49.5712 H       1  ZINC000463741321    0.0900
@<TRIPOS>BOND
     1     1     2    1
     2     1    29    1
     3     1    30    1
     4     1    31    1
     5     2     3    1
     6     2     4    1
     7     2    13    1
     8     4     5    1
     9     4    32    1
    10     4    33    1
    11     5     6    1
    12     5    34    1
    13     5    35    1
    14     6    11   ar
    15     6     7   ar
    16     7     8   ar
    17     7    36    1
    18     8     9   ar
    19     8    37    1
    20     9    10   ar
    21     9    38    1
    22    10    11   ar
    23    10    39    1
    24    11    12    1
    25    13    14    2
    26    13    15   am
    27    15    16    1
    28    15    40    1
    29    16    17    1
    30    16    28    1
    31    16    18    1
    32    18    19    1
    33    18    41    1
    34    18    42    1
    35    19    20    1
    36    19    43    1
    37    19    44    1
    38    20    21    1
    39    20    45    1
    40    20    46    1
    41    21    22    1
    42    21    28    1
    43    22    27   ar
    44    22    23   ar
    45    23    24   ar
    46    23    47    1
    47    24    25   ar
    48    24    48    1
    49    25    26   ar
    50    25    49    1
    51    26    27   ar
    52    26    50    1
    53    27    51    1
    54    28    52    1
    55    28    53    1
@<TRIPOS>SUBSTRUCTURE
     1 ZINC000463741321        1 TEMP              0 ****  ****    0 ROOT


##########                                Name:    ZINC000151850193
##########                DOCK_Rotatable_Bonds:                  11
##########                         Heavy_Atoms:                  23
##########                    Molecular_Weight:             328.452
##########                DOCK_Rotatable_Bonds:                  11
##########                       Formal_Charge:            0.039999
##########                     HBond_Acceptors:                   6
##########                        HBond_Donors:                   2
##########                         Heavy_Atoms:                  23
##########                          Grid_Score:          -33.025047
##########                     Grid_vdw_energy:          -31.068953
##########                      Grid_es_energy:           -1.956096
##########           Internal_energy_repulsive:           32.034496

@<TRIPOS>MOLECULE
ZINC000151850193
 55 55 1 0 0
SMALL
USER_CHARGES


@<TRIPOS>ATOM
      1 C1         -1.2655    1.4302   44.8153 C.3     1  ZINC000151850193   -0.1500
      2 C2         -0.5949    0.5921   45.9056 C.3     1  ZINC000151850193   -0.1000
      3 C3         -0.5729    1.3827   47.2154 C.3     1  ZINC000151850193   -0.0800
      4 C4         -0.0819    2.8203   47.0334 C.3     1  ZINC000151850193   -0.1000
      5 C5          1.3279    2.8064   46.4391 C.3     1  ZINC000151850193   -0.1500
      6 C6         -1.8767    1.2727   48.0232 C.3     1  ZINC000151850193    0.1400
      7 H7         -2.7512    1.0479   47.4126 H       1  ZINC000151850193    0.1000
      8 N8         -2.0958    2.3947   48.9394 N.am    1  ZINC000151850193   -0.7000
      9 C9         -3.2280    2.4586   49.6680 C.2     1  ZINC000151850193    0.5200
     10 O10        -4.0659    1.5881   49.5639 O.2     1  ZINC000151850193   -0.5300
     11 C11        -3.4526    3.6119   50.6117 C.3     1  ZINC000151850193   -0.1500
     12 C12        -4.9534    3.8782   50.7434 C.3     1  ZINC000151850193    0.1500
     13 N13        -5.4228    3.3954   52.0444 N.am    1  ZINC000151850193   -0.7100
     14 C14        -6.7423    3.2346   52.2675 C.2     1  ZINC000151850193    0.6500
     15 O15        -7.5425    3.4916   51.3901 O.2     1  ZINC000151850193   -0.5600
     16 O16        -7.1735    2.7893   53.4627 O.3     1  ZINC000151850193   -0.3700
     17 C17        -7.8961    1.5300   53.4753 C.3     1  ZINC000151850193    0.1400
     18 C18        -9.3309    1.7604   52.9965 C.3     1  ZINC000151850193   -0.1800
     19 C19        -7.2016    0.5341   52.5442 C.3     1  ZINC000151850193   -0.1400
     20 C20        -7.9173    0.9683   54.8983 C.3     1  ZINC000151850193   -0.1800
     21 C21        -1.2619    0.0351   48.6979 C.3     1  ZINC000151850193   -0.1700
     22 C22         0.1145    0.6388   48.3725 C.3     1  ZINC000151850193    0.0700
     23 H23         0.8476   -0.0978   48.0437 H       1  ZINC000151850193    0.0800
     24 O24         0.6163    1.5035   49.3935 O.3     1  ZINC000151850193   -0.3700
     25 C25         1.5734    0.8881   50.2579 C.3     1  ZINC000151850193    0.0300
     26 H26        -2.2969    1.6385   45.0998 H       1  ZINC000151850193    0.0600
     27 H27        -0.7251    2.3692   44.6948 H       1  ZINC000151850193    0.0600
     28 H28        -1.2522    0.8801   43.8744 H       1  ZINC000151850193    0.0600
     29 H29        -1.1542   -0.3325   46.0487 H       1  ZINC000151850193    0.0700
     30 H30         0.4263    0.3565   45.6063 H       1  ZINC000151850193    0.0700
     31 H31        -0.7548    3.3516   46.3602 H       1  ZINC000151850193    0.0700
     32 H32        -0.0636    3.3231   48.0003 H       1  ZINC000151850193    0.0700
     33 H33         2.0151    2.3395   47.1448 H       1  ZINC000151850193    0.0500
     34 H34         1.3239    2.2404   45.5075 H       1  ZINC000151850193    0.0500
     35 H35         1.6491    3.8290   46.2417 H       1  ZINC000151850193    0.0500
     36 H36        -1.4261    3.0915   49.0217 H       1  ZINC000151850193    0.4100
     37 H37        -3.0400    3.3661   51.5903 H       1  ZINC000151850193    0.1000
     38 H38        -2.9584    4.5018   50.2221 H       1  ZINC000151850193    0.1000
     39 H39        -5.1407    4.9491   50.6641 H       1  ZINC000151850193    0.0800
     40 H40        -5.4862    3.3564   49.9484 H       1  ZINC000151850193    0.0800
     41 H41        -4.7840    3.1914   52.7453 H       1  ZINC000151850193    0.4100
     42 H42        -9.3158    2.1606   51.9827 H       1  ZINC000151850193    0.0600
     43 H43        -9.8733    0.8150   53.0060 H       1  ZINC000151850193    0.0700
     44 H44        -9.8257    2.4699   53.6598 H       1  ZINC000151850193    0.0900
     45 H45        -6.1794    0.3699   52.8852 H       1  ZINC000151850193    0.0700
     46 H46        -7.7440   -0.4113   52.5536 H       1  ZINC000151850193    0.0800
     47 H47        -7.1864    0.9343   51.5304 H       1  ZINC000151850193    0.0700
     48 H48        -8.4121    1.6777   55.5616 H       1  ZINC000151850193    0.0900
     49 H49        -8.4598    0.0229   54.9077 H       1  ZINC000151850193    0.0700
     50 H50        -6.8951    0.8041   55.2393 H       1  ZINC000151850193    0.0600
     51 H51        -1.4694   -0.0282   49.7661 H       1  ZINC000151850193    0.0800
     52 H52        -1.4660   -0.8965   48.1702 H       1  ZINC000151850193    0.1000
     53 H53         1.1161    0.0334   50.7563 H       1  ZINC000151850193    0.0400
     54 H54         2.4289    0.5519   49.6720 H       1  ZINC000151850193    0.0400
     55 H55         1.9053    1.6094   51.0047 H       1  ZINC000151850193    0.0900
@<TRIPOS>BOND
     1     1     2    1
     2     1    26    1
     3     1    27    1
     4     1    28    1
     5     2     3    1
     6     2    29    1
     7     2    30    1
     8     3    22    1
     9     3     4    1
    10     3     6    1
    11     4     5    1
    12     4    31    1
    13     4    32    1
    14     5    33    1
    15     5    34    1
    16     5    35    1
    17     6     7    1
    18     6     8    1
    19     6    21    1
    20     8     9   am
    21     8    36    1
    22     9    10    2
    23     9    11    1
    24    11    12    1
    25    11    37    1
    26    11    38    1
    27    12    13    1
    28    12    39    1
    29    12    40    1
    30    13    14   am
    31    13    41    1
    32    14    15    2
    33    14    16    1
    34    16    17    1
    35    17    18    1
    36    17    19    1
    37    17    20    1
    38    18    42    1
    39    18    43    1
    40    18    44    1
    41    19    45    1
    42    19    46    1
    43    19    47    1
    44    20    48    1
    45    20    49    1
    46    20    50    1
    47    21    22    1
    48    21    51    1
    49    21    52    1
    50    22    23    1
    51    22    24    1
    52    24    25    1
    53    25    53    1
    54    25    54    1
    55    25    55    1
@<TRIPOS>SUBSTRUCTURE
     1 ZINC000151850193        1 TEMP              0 ****  ****    0 ROOT


##########                                Name:    ZINC000274225049
##########                DOCK_Rotatable_Bonds:                   6
##########                         Heavy_Atoms:                  25
##########                    Molecular_Weight:             380.895
##########                DOCK_Rotatable_Bonds:                   6
##########                       Formal_Charge:           0.0200006
##########                     HBond_Acceptors:                   7
##########                        HBond_Donors:                   2
##########                         Heavy_Atoms:                  25
##########                          Grid_Score:          -33.010811
##########                     Grid_vdw_energy:          -32.446949
##########                      Grid_es_energy:           -0.563860
##########           Internal_energy_repulsive:           11.441808

@<TRIPOS>MOLECULE
ZINC000274225049
 46 48 1 0 0
SMALL
USER_CHARGES


@<TRIPOS>ATOM
      1 C1          0.4991    0.3098   49.4748 C.3     1  ZINC000274225049   -0.1600
      2 C2         -0.6118    1.0933   48.7729 C.3     1  ZINC000274225049    0.2000
      3 H3         -0.4124    2.1615   48.8577 H       1  ZINC000274225049    0.1100
      4 N4         -1.8987    0.7855   49.4017 N.am    1  ZINC000274225049   -0.7400
      5 C5         -2.8753    1.7139   49.4277 C.2     1  ZINC000274225049    0.7100
      6 O6         -2.6887    2.8065   48.9281 O.2     1  ZINC000274225049   -0.5800
      7 N7         -4.0586    1.4313   50.0075 N.am    1  ZINC000274225049   -0.7500
      8 C8         -5.1207    2.4399   50.0343 C.3     1  ZINC000274225049    0.1500
      9 C9         -5.9527    2.2707   51.3072 C.3     1  ZINC000274225049   -0.1000
     10 H10        -5.3096    2.3365   52.1847 H       1  ZINC000274225049    0.1000
     11 C11        -6.6783    0.9139   51.2860 C.3     1  ZINC000274225049   -0.1100
     12 C12        -7.7564    0.9126   52.3881 C.3     1  ZINC000274225049   -0.5900
     13 S13        -8.2320    2.6672   52.5909 S.o2    1  ZINC000274225049    2.3900
     14 O14        -9.5599    2.8526   52.1206 O.2     1  ZINC000274225049   -0.9300
     15 O15        -7.8757    3.1039   53.8955 O.2     1  ZINC000274225049   -0.9300
     16 C16        -7.0523    3.3620   51.3718 C.3     1  ZINC000274225049   -0.5900
     17 C17        -0.6580    0.7049   47.3176 C.ar    1  ZINC000274225049   -0.0700
     18 C18         0.1375    1.3847   46.3799 C.ar    1  ZINC000274225049   -0.0300
     19 C19         0.9885    2.4335   46.7687 C.ar    1  ZINC000274225049   -0.1100
     20 C20         1.7448    3.0690   45.8328 C.ar    1  ZINC000274225049   -0.1100
     21 C21         1.6893    2.6959   44.4910 C.ar    1  ZINC000274225049   -0.1100
     22 C22         0.8770    1.6850   44.0779 C.ar    1  ZINC000274225049   -0.1000
     23 C23         0.0811    1.0052   45.0155 C.ar    1  ZINC000274225049   -0.0400
     24 C24        -0.7699   -0.0444   44.6268 C.ar    1  ZINC000274225049   -0.0300
     25 Cl25       -0.8555   -0.5276   42.9615 Cl      1  ZINC000274225049   -0.0600
     26 C26        -1.5266   -0.6805   45.5644 C.ar    1  ZINC000274225049   -0.1000
     27 C27        -1.4666   -0.3101   46.9059 C.ar    1  ZINC000274225049   -0.1000
     28 H28         0.5326    0.5907   50.5274 H       1  ZINC000274225049    0.0700
     29 H29         0.2997   -0.7585   49.3901 H       1  ZINC000274225049    0.0700
     30 H30         1.4567    0.5389   49.0070 H       1  ZINC000274225049    0.0800
     31 H31        -2.0480   -0.0867   49.7992 H       1  ZINC000274225049    0.4000
     32 H32        -4.2070    0.5599   50.4072 H       1  ZINC000274225049    0.4000
     33 H33        -4.6769    3.4353   50.0199 H       1  ZINC000274225049    0.0800
     34 H34        -5.7621    2.3153   49.1618 H       1  ZINC000274225049    0.0800
     35 H35        -7.1480    0.7647   50.3138 H       1  ZINC000274225049    0.0900
     36 H36        -5.9630    0.1129   51.4722 H       1  ZINC000274225049    0.0900
     37 H37        -8.6168    0.3211   52.0752 H       1  ZINC000274225049    0.1400
     38 H38        -7.3456    0.5218   53.3189 H       1  ZINC000274225049    0.1400
     39 H39        -6.6407    4.3069   51.7266 H       1  ZINC000274225049    0.1400
     40 H40        -7.5294    3.4874   50.3997 H       1  ZINC000274225049    0.1400
     41 H41         1.0416    2.7337   47.8049 H       1  ZINC000274225049    0.1300
     42 H42         2.3976    3.8749   46.1341 H       1  ZINC000274225049    0.1300
     43 H43         2.2997    3.2169   43.7684 H       1  ZINC000274225049    0.1300
     44 H44         0.8441    1.4070   43.0348 H       1  ZINC000274225049    0.1300
     45 H45        -2.1798   -1.4862   45.2636 H       1  ZINC000274225049    0.1300
     46 H46        -2.0768   -0.8306   47.6291 H       1  ZINC000274225049    0.1300
@<TRIPOS>BOND
     1     1     2    1
     2     1    28    1
     3     1    29    1
     4     1    30    1
     5     2     3    1
     6     2     4    1
     7     2    17    1
     8     4     5   am
     9     4    31    1
    10     5     6    2
    11     5     7   am
    12     7     8    1
    13     7    32    1
    14     8     9    1
    15     8    33    1
    16     8    34    1
    17     9    10    1
    18     9    16    1
    19     9    11    1
    20    11    12    1
    21    11    35    1
    22    11    36    1
    23    12    13    1
    24    12    37    1
    25    12    38    1
    26    13    14    2
    27    13    15    2
    28    13    16    1
    29    16    39    1
    30    16    40    1
    31    17    27   ar
    32    17    18   ar
    33    18    23   ar
    34    18    19   ar
    35    19    20   ar
    36    19    41    1
    37    20    21   ar
    38    20    42    1
    39    21    22   ar
    40    21    43    1
    41    22    23   ar
    42    22    44    1
    43    23    24   ar
    44    24    25    1
    45    24    26   ar
    46    26    27   ar
    47    26    45    1
    48    27    46    1
@<TRIPOS>SUBSTRUCTURE
     1 ZINC000274225049        1 TEMP              0 ****  ****    0 ROOT


##########                                Name:    ZINC000583220082
##########                DOCK_Rotatable_Bonds:                   9
##########                         Heavy_Atoms:                  29
##########                    Molecular_Weight:             417.492
##########                DOCK_Rotatable_Bonds:                   9
##########                       Formal_Charge:          -0.0400006
##########                     HBond_Acceptors:                  11
##########                        HBond_Donors:                   3
##########                         Heavy_Atoms:                  29
##########                          Grid_Score:          -33.010509
##########                     Grid_vdw_energy:          -32.986115
##########                      Grid_es_energy:           -0.024393
##########           Internal_energy_repulsive:           19.299635

@<TRIPOS>MOLECULE
ZINC000583220082
 52 54 1 0 0
SMALL
USER_CHARGES


@<TRIPOS>ATOM
      1 C1        -13.1516   -2.3153   57.5531 C.3     1  ZINC000583220082    0.0800
      2 N2        -12.5954   -2.3498   58.9080 N.am    1  ZINC000583220082   -0.6300
      3 C3        -13.4149   -1.9292   60.0471 C.3     1  ZINC000583220082    0.0800
      4 C4        -11.3298   -2.7686   59.1064 C.2     1  ZINC000583220082    0.5100
      5 O5        -10.8689   -2.7958   60.2279 O.2     1  ZINC000583220082   -0.5300
      6 C6        -10.4875   -3.2030   57.9347 C.3     1  ZINC000583220082   -0.1000
      7 C7        -10.2316   -2.0219   57.0345 C.ar    1  ZINC000583220082   -0.0800
      8 C8        -10.2532   -2.1836   55.6613 C.ar    1  ZINC000583220082   -0.0800
      9 C9        -10.0191   -1.1034   54.8334 C.ar    1  ZINC000583220082   -0.1400
     10 C10        -9.7623    0.1470   55.3816 C.ar    1  ZINC000583220082    0.1400
     11 N11        -9.5254    1.2423   54.5470 N.am    1  ZINC000583220082   -0.6400
     12 C12        -8.3708    1.9299   54.6489 C.2     1  ZINC000583220082    0.5100
     13 O13        -7.5367    1.5978   55.4657 O.2     1  ZINC000583220082   -0.4900
     14 C14        -8.1176    3.1007   53.7567 C.2     1  ZINC000583220082    0.5100
     15 O15        -8.4116    4.2191   54.1250 O.2     1  ZINC000583220082   -0.5100
     16 N16        -7.5626    2.9152   52.5426 N.am    1  ZINC000583220082   -0.5800
     17 C17        -7.2990    4.0548   51.6510 C.3     1  ZINC000583220082    0.0600
     18 C18        -5.8416    3.9802   51.1836 C.3     1  ZINC000583220082    0.0300
     19 N19        -5.5864    2.6588   50.5948 N.3     1  ZINC000583220082   -0.4300
     20 C20        -4.3317    2.6081   50.0161 C.2     1  ZINC000583220082    0.2900
     21 N21        -3.9341    1.8260   49.0348 N.2     1  ZINC000583220082   -0.5700
     22 C22        -2.6831    1.9544   48.6436 C.2     1  ZINC000583220082    0.5400
     23 N23        -2.1658    1.1725   47.6116 N.pl3   1  ZINC000583220082   -0.8200
     24 N24        -1.9442    2.8404   49.2564 N.2     1  ZINC000583220082   -0.5500
     25 S25        -2.9534    3.5600   50.4187 S.3     1  ZINC000583220082    0.2000
     26 C26        -5.7505    1.5911   51.5904 C.3     1  ZINC000583220082    0.0500
     27 C27        -7.1987    1.5684   52.0769 C.3     1  ZINC000583220082    0.1100
     28 C28        -9.7417    0.3060   56.7617 C.ar    1  ZINC000583220082   -0.1200
     29 C29        -9.9814   -0.7775   57.5835 C.ar    1  ZINC000583220082   -0.0800
     30 H30       -12.9528   -1.3425   57.1033 H       1  ZINC000583220082    0.0500
     31 H31       -12.6880   -3.0960   56.9499 H       1  ZINC000583220082    0.0800
     32 H32       -14.2279   -2.4818   57.5978 H       1  ZINC000583220082    0.0700
     33 H33       -14.4006   -1.6266   59.6936 H       1  ZINC000583220082    0.0800
     34 H34       -13.5186   -2.7591   60.7462 H       1  ZINC000583220082    0.0600
     35 H35       -12.9353   -1.0890   60.5492 H       1  ZINC000583220082    0.0600
     36 H36        -9.5377   -3.5969   58.2962 H       1  ZINC000583220082    0.1000
     37 H37       -11.0133   -3.9779   57.3768 H       1  ZINC000583220082    0.1000
     38 H38       -10.4530   -3.1560   55.2358 H       1  ZINC000583220082    0.1300
     39 H39       -10.0355   -1.2306   53.7611 H       1  ZINC000583220082    0.1300
     40 H40       -10.1920    1.5078   53.8942 H       1  ZINC000583220082    0.4200
     41 H41        -7.9632    4.0058   50.7880 H       1  ZINC000583220082    0.0900
     42 H42        -7.4633    4.9875   52.1905 H       1  ZINC000583220082    0.1700
     43 H43        -5.6592    4.7527   50.4365 H       1  ZINC000583220082    0.1100
     44 H44        -5.1783    4.1332   52.0349 H       1  ZINC000583220082    0.0700
     45 H45        -1.2275    1.2406   47.3752 H       1  ZINC000583220082    0.4200
     46 H46        -2.7441    0.5604   47.1302 H       1  ZINC000583220082    0.4200
     47 H47        -5.5023    0.6309   51.1381 H       1  ZINC000583220082    0.1100
     48 H48        -5.0886    1.7775   52.4360 H       1  ZINC000583220082    0.0600
     49 H49        -7.2986    0.8564   52.8961 H       1  ZINC000583220082    0.1100
     50 H50        -7.8561    1.2812   51.2562 H       1  ZINC000583220082    0.0900
     51 H51        -9.5424    1.2768   57.1911 H       1  ZINC000583220082    0.1400
     52 H52        -9.9656   -0.6546   58.6564 H       1  ZINC000583220082    0.1300
@<TRIPOS>BOND
     1     1     2    1
     2     1    30    1
     3     1    31    1
     4     1    32    1
     5     2     3    1
     6     2     4   am
     7     3    33    1
     8     3    34    1
     9     3    35    1
    10     4     5    2
    11     4     6    1
    12     6     7    1
    13     6    36    1
    14     6    37    1
    15     7    29   ar
    16     7     8   ar
    17     8     9   ar
    18     8    38    1
    19     9    10   ar
    20     9    39    1
    21    10    11    1
    22    10    28   ar
    23    11    12   am
    24    11    40    1
    25    12    13    2
    26    12    14    1
    27    14    15    2
    28    14    16   am
    29    16    27    1
    30    16    17    1
    31    17    18    1
    32    17    41    1
    33    17    42    1
    34    18    19    1
    35    18    43    1
    36    18    44    1
    37    19    20    1
    38    19    26    1
    39    20    25    1
    40    20    21    2
    41    21    22    1
    42    22    23    1
    43    22    24    2
    44    23    45    1
    45    23    46    1
    46    24    25    1
    47    26    27    1
    48    26    47    1
    49    26    48    1
    50    27    49    1
    51    27    50    1
    52    28    29   ar
    53    28    51    1
    54    29    52    1
@<TRIPOS>SUBSTRUCTURE
     1 ZINC000583220082        1 TEMP              0 ****  ****    0 ROOT


##########                                Name:    ZINC000609484313
##########                DOCK_Rotatable_Bonds:                  10
##########                         Heavy_Atoms:                  26
##########                    Molecular_Weight:             361.487
##########                DOCK_Rotatable_Bonds:                  10
##########                       Formal_Charge:          -0.0200004
##########                     HBond_Acceptors:                   7
##########                        HBond_Donors:                   1
##########                         Heavy_Atoms:                  26
##########                          Grid_Score:          -33.009789
##########                     Grid_vdw_energy:          -32.973660
##########                      Grid_es_energy:           -0.036130
##########           Internal_energy_repulsive:           34.683937

@<TRIPOS>MOLECULE
ZINC000609484313
 57 58 1 0 0
SMALL
USER_CHARGES


@<TRIPOS>ATOM
      1 C1          0.0641    5.2664   50.8129 C.3     1  ZINC000609484313   -0.1500
      2 C2         -1.3032    5.1517   51.4900 C.3     1  ZINC000609484313   -0.1300
      3 C3         -2.1256    4.0633   50.7973 C.3     1  ZINC000609484313   -0.1100
      4 C4         -3.4929    3.9486   51.4744 C.3     1  ZINC000609484313   -0.1100
      5 C5         -4.4026    3.0471   50.6374 C.3     1  ZINC000609484313    0.0800
      6 H6         -5.0499    3.6632   50.0133 H       1  ZINC000609484313    0.1200
      7 C7         -3.5594    2.1568   49.7615 C.2     1  ZINC000609484313    0.4900
      8 O8         -2.9484    1.2295   50.2489 O.2     1  ZINC000609484313   -0.5000
      9 N9         -3.4843    2.3911   48.4364 N.am    1  ZINC000609484313   -0.6300
     10 C10        -2.7050    1.5658   47.6253 C.2     1  ZINC000609484313    0.2400
     11 N11        -1.9961    0.5353   48.0051 N.2     1  ZINC000609484313   -0.3900
     12 O12        -1.4282    0.0198   47.0704 O.3     1  ZINC000609484313    0.1000
     13 C13        -1.6905    0.6543   45.9186 C.2     1  ZINC000609484313   -0.0200
     14 C14        -1.1616    0.2975   44.5533 C.3     1  ZINC000609484313   -0.0800
     15 C15        -2.5275    1.6730   46.2202 C.2     1  ZINC000609484313   -0.2300
     16 N16        -5.2259    2.2191   51.5289 N.3     1  ZINC000609484313   -0.5000
     17 C17        -6.0420    1.2688   50.7606 C.3     1  ZINC000609484313    0.0400
     18 C18        -6.8228    0.3740   51.7260 C.3     1  ZINC000609484313    0.0500
     19 N19        -7.6671    1.2102   52.5905 N.3     1  ZINC000609484313   -0.5100
     20 C20        -8.4904    0.3822   53.4821 C.3     1  ZINC000609484313    0.1800
     21 H21        -8.3144   -0.6713   53.2650 H       1  ZINC000609484313    0.1200
     22 C22        -8.1309    0.6615   54.8819 C.1     1  ZINC000609484313    0.1700
     23 N23        -7.8535    0.8771   55.9622 N.1     1  ZINC000609484313   -0.4200
     24 C24        -9.9686    0.7085   53.2604 C.3     1  ZINC000609484313   -0.0800
     25 C25       -10.8285   -0.1903   54.1512 C.3     1  ZINC000609484313   -0.1400
     26 C26       -10.2261    2.1745   53.6150 C.3     1  ZINC000609484313   -0.1500
     27 C27        -6.8510    2.1605   53.3589 C.3     1  ZINC000609484313    0.0500
     28 C28        -6.0702    3.0553   52.3935 C.3     1  ZINC000609484313    0.0400
     29 H29         0.5873    4.3131   50.8872 H       1  ZINC000609484313    0.0500
     30 H30        -0.0710    5.5258   49.7630 H       1  ZINC000609484313    0.0500
     31 H31         0.6500    6.0418   51.3065 H       1  ZINC000609484313    0.0500
     32 H32        -1.1680    4.8922   52.5400 H       1  ZINC000609484313    0.0600
     33 H33        -1.8265    6.1050   51.4158 H       1  ZINC000609484313    0.0600
     34 H34        -2.2607    4.3228   49.7474 H       1  ZINC000609484313    0.0800
     35 H35        -1.6024    3.1099   50.8716 H       1  ZINC000609484313    0.0600
     36 H36        -3.3711    3.5190   52.4687 H       1  ZINC000609484313    0.0700
     37 H37        -3.9407    4.9388   51.5589 H       1  ZINC000609484313    0.0800
     38 H38        -3.9720    3.1334   48.0467 H       1  ZINC000609484313    0.4200
     39 H39        -0.5143   -0.5759   44.6313 H       1  ZINC000609484313    0.0800
     40 H40        -1.9954    0.0738   43.8878 H       1  ZINC000609484313    0.0900
     41 H41        -0.5926    1.1369   44.1533 H       1  ZINC000609484313    0.0900
     42 H42        -2.9557    2.4029   45.5494 H       1  ZINC000609484313    0.1900
     43 H43        -6.7399    1.8174   50.1280 H       1  ZINC000609484313    0.0800
     44 H44        -5.3932    0.6529   50.1378 H       1  ZINC000609484313    0.0800
     45 H45        -7.4509   -0.3124   51.1582 H       1  ZINC000609484313    0.0900
     46 H46        -6.1245   -0.1947   52.3399 H       1  ZINC000609484313    0.0400
     47 H47       -10.2258    0.5370   52.2151 H       1  ZINC000609484313    0.0800
     48 H48       -10.5714   -0.0187   55.1966 H       1  ZINC000609484313    0.0600
     49 H49       -11.8817    0.0422   53.9933 H       1  ZINC000609484313    0.0500
     50 H50       -10.6452   -1.2346   53.8986 H       1  ZINC000609484313    0.0700
     51 H51       -11.2938    2.3826   53.5469 H       1  ZINC000609484313    0.0700
     52 H52        -9.8822    2.3683   54.6310 H       1  ZINC000609484313    0.0600
     53 H53        -9.6856    2.8168   52.9198 H       1  ZINC000609484313    0.0500
     54 H54        -7.4997    2.7764   53.9818 H       1  ZINC000609484313    0.0900
     55 H55        -6.1531    1.6119   53.9915 H       1  ZINC000609484313    0.0400
     56 H56        -5.4421    3.7417   52.9612 H       1  ZINC000609484313    0.0800
     57 H57        -6.7685    3.6241   51.7795 H       1  ZINC000609484313    0.0800
@<TRIPOS>BOND
     1     1     2    1
     2     1    29    1
     3     1    30    1
     4     1    31    1
     5     2     3    1
     6     2    32    1
     7     2    33    1
     8     3     4    1
     9     3    34    1
    10     3    35    1
    11     4     5    1
    12     4    36    1
    13     4    37    1
    14     5     6    1
    15     5     7    1
    16     5    16    1
    17     7     8    2
    18     7     9   am
    19     9    10    1
    20     9    38    1
    21    10    15    1
    22    10    11    2
    23    11    12    1
    24    12    13    1
    25    13    14    1
    26    13    15    2
    27    14    39    1
    28    14    40    1
    29    14    41    1
    30    15    42    1
    31    16    28    1
    32    16    17    1
    33    17    18    1
    34    17    43    1
    35    17    44    1
    36    18    19    1
    37    18    45    1
    38    18    46    1
    39    19    20    1
    40    19    27    1
    41    20    21    1
    42    20    22    1
    43    20    24    1
    44    22    23    3
    45    24    25    1
    46    24    26    1
    47    24    47    1
    48    25    48    1
    49    25    49    1
    50    25    50    1
    51    26    51    1
    52    26    52    1
    53    26    53    1
    54    27    28    1
    55    27    54    1
    56    27    55    1
    57    28    56    1
    58    28    57    1
@<TRIPOS>SUBSTRUCTURE
     1 ZINC000609484313        1 TEMP              0 ****  ****    0 ROOT


##########                                Name:    ZINC000481838178
##########                DOCK_Rotatable_Bonds:                   6
##########                         Heavy_Atoms:                  29
##########                    Molecular_Weight:             408.524
##########                DOCK_Rotatable_Bonds:                   6
##########                       Formal_Charge:         -0.00999962
##########                     HBond_Acceptors:                   7
##########                        HBond_Donors:                   0
##########                         Heavy_Atoms:                  29
##########                          Grid_Score:          -33.009644
##########                     Grid_vdw_energy:          -32.770702
##########                      Grid_es_energy:           -0.238942
##########           Internal_energy_repulsive:            7.695705

@<TRIPOS>MOLECULE
ZINC000481838178
 53 57 1 0 0
SMALL
USER_CHARGES


@<TRIPOS>ATOM
      1 O1         -1.2209    3.5812   49.4061 O.2     1  ZINC000481838178   -0.5200
      2 C2         -1.8342    2.6911   48.8562 C.2     1  ZINC000481838178    0.5500
      3 C3         -3.0088    2.0472   49.5468 C.3     1  ZINC000481838178   -0.1500
      4 S4         -3.7845    3.2447   50.6606 S.3     1  ZINC000481838178    0.1000
      5 C5         -5.1545    2.2928   51.2273 C.2     1  ZINC000481838178    0.1600
      6 N6         -5.6447    1.2157   50.6560 N.2     1  ZINC000481838178   -0.2800
      7 N7         -6.6434    0.7706   51.3309 N.2     1  ZINC000481838178   -0.2500
      8 C8         -6.8556    1.5366   52.3789 C.2     1  ZINC000481838178    0.2700
      9 C9         -7.9051    1.3598   53.3940 C.2     1  ZINC000481838178    0.0300
     10 C10        -7.8195    1.7218   54.7052 C.2     1  ZINC000481838178   -0.1300
     11 C11        -9.0446    1.3693   55.3037 C.2     1  ZINC000481838178   -0.2100
     12 C12        -9.8102    0.8161   54.3420 C.2     1  ZINC000481838178   -0.0100
     13 O13        -9.1215    0.8172   53.1886 O.3     1  ZINC000481838178   -0.1700
     14 N14        -5.9028    2.5340   52.3482 N.pl3   1  ZINC000481838178   -0.4100
     15 C15        -5.7406    3.5799   53.2670 C.ar    1  ZINC000481838178    0.1000
     16 C16        -4.5275    3.7499   53.9204 C.ar    1  ZINC000481838178   -0.0800
     17 C17        -4.3708    4.7815   54.8255 C.ar    1  ZINC000481838178   -0.1100
     18 C18        -5.4205    5.6446   55.0809 C.ar    1  ZINC000481838178   -0.1000
     19 C19        -6.6300    5.4778   54.4316 C.ar    1  ZINC000481838178   -0.1100
     20 C20        -6.7910    4.4515   53.5213 C.ar    1  ZINC000481838178   -0.0900
     21 N21        -1.4689    2.2814   47.6253 N.am    1  ZINC000481838178   -0.6200
     22 C22        -0.3327    2.8182   46.8295 C.3     1  ZINC000481838178    0.1000
     23 C23         0.0295    1.6492   45.9057 C.3     1  ZINC000481838178   -0.1100
     24 H24         0.5547    0.8667   46.4532 H       1  ZINC000481838178    0.0900
     25 C25         0.7680    2.0070   44.6297 C.3     1  ZINC000481838178   -0.1100
     26 C26         0.9181    0.7108   43.8160 C.3     1  ZINC000481838178   -0.1200
     27 C27        -0.4351    0.0727   43.5189 C.3     1  ZINC000481838178   -0.1200
     28 C28        -1.2502   -0.1510   44.8039 C.3     1  ZINC000481838178   -0.1000
     29 C29        -1.3999    1.1858   45.4925 C.3     1  ZINC000481838178   -0.1100
     30 H30        -1.8253    1.9149   44.8028 H       1  ZINC000481838178    0.0900
     31 C31        -2.1274    1.2129   46.8333 C.3     1  ZINC000481838178    0.1200
     32 H32        -3.7345    1.7212   48.8016 H       1  ZINC000481838178    0.1300
     33 H33        -2.6658    1.1865   50.1208 H       1  ZINC000481838178    0.1300
     34 H34        -6.9754    2.1882   55.1913 H       1  ZINC000481838178    0.1600
     35 H35        -9.3188    1.5145   56.3380 H       1  ZINC000481838178    0.1600
     36 H36       -10.8133    0.4387   54.4757 H       1  ZINC000481838178    0.2100
     37 H37        -3.7074    3.0760   53.7216 H       1  ZINC000481838178    0.1300
     38 H38        -3.4274    4.9141   55.3342 H       1  ZINC000481838178    0.1400
     39 H39        -5.2957    6.4503   55.7891 H       1  ZINC000481838178    0.1300
     40 H40        -7.4483    6.1532   54.6335 H       1  ZINC000481838178    0.1400
     41 H41        -7.7359    4.3218   53.0145 H       1  ZINC000481838178    0.1300
     42 H42        -0.6455    3.6856   46.2482 H       1  ZINC000481838178    0.0800
     43 H43         0.5064    3.0704   47.4781 H       1  ZINC000481838178    0.0800
     44 H44         0.1941    2.7386   44.0608 H       1  ZINC000481838178    0.0700
     45 H45         1.7516    2.4106   44.8704 H       1  ZINC000481838178    0.0700
     46 H46         1.4187    0.9378   42.8747 H       1  ZINC000481838178    0.0600
     47 H47         1.5277    0.0052   44.3804 H       1  ZINC000481838178    0.0600
     48 H48        -0.9969    0.7249   42.8501 H       1  ZINC000481838178    0.0600
     49 H49        -0.2757   -0.8869   43.0269 H       1  ZINC000481838178    0.0700
     50 H50        -2.2326   -0.5529   44.5556 H       1  ZINC000481838178    0.0700
     51 H51        -0.7221   -0.8394   45.4638 H       1  ZINC000481838178    0.0700
     52 H52        -2.0348    0.2478   47.3313 H       1  ZINC000481838178    0.0700
     53 H53        -3.1782    1.4622   46.6864 H       1  ZINC000481838178    0.0700
@<TRIPOS>BOND
     1     1     2    2
     2     2     3    1
     3     2    21   am
     4     3     4    1
     5     3    32    1
     6     3    33    1
     7     4     5    1
     8     5    14    1
     9     5     6    2
    10     6     7    1
    11     7     8    2
    12     8     9    1
    13     8    14    1
    14     9    13    1
    15     9    10    2
    16    10    11    1
    17    10    34    1
    18    11    12    2
    19    11    35    1
    20    12    13    1
    21    12    36    1
    22    14    15    1
    23    15    20   ar
    24    15    16   ar
    25    16    17   ar
    26    16    37    1
    27    17    18   ar
    28    17    38    1
    29    18    19   ar
    30    18    39    1
    31    19    20   ar
    32    19    40    1
    33    20    41    1
    34    21    31    1
    35    21    22    1
    36    22    23    1
    37    22    42    1
    38    22    43    1
    39    23    24    1
    40    23    29    1
    41    23    25    1
    42    25    26    1
    43    25    44    1
    44    25    45    1
    45    26    27    1
    46    26    46    1
    47    26    47    1
    48    27    28    1
    49    27    48    1
    50    27    49    1
    51    28    29    1
    52    28    50    1
    53    28    51    1
    54    29    30    1
    55    29    31    1
    56    31    52    1
    57    31    53    1
@<TRIPOS>SUBSTRUCTURE
     1 ZINC000481838178        1 TEMP              0 ****  ****    0 ROOT


##########                                Name:    ZINC000011972961
##########                DOCK_Rotatable_Bonds:                   6
##########                         Heavy_Atoms:                  28
##########                    Molecular_Weight:             397.501
##########                DOCK_Rotatable_Bonds:                   6
##########                       Formal_Charge:                   0
##########                     HBond_Acceptors:                   8
##########                        HBond_Donors:                   1
##########                         Heavy_Atoms:                  28
##########                          Grid_Score:          -32.985783
##########                     Grid_vdw_energy:          -32.985783
##########                      Grid_es_energy:            0.000000
##########           Internal_energy_repulsive:           27.367455

@<TRIPOS>MOLECULE
ZINC000011972961
 51 54 1 0 0
SMALL
USER_CHARGES


@<TRIPOS>ATOM
      1 C1         -6.0369    1.6605   50.2089 C.3        `      0.0000
      2 C2         -5.8237    2.7671   51.2093 C.2        `      0.0000
      3 C3         -6.7748    3.1408   52.0747 C.2        `      0.0000
      4 C4         -8.1108    2.5382   52.1589 C.2        `      0.0000
      5 O5         -9.0116    2.9549   51.4551 O.2        `      0.0000
      6 N6         -8.3395    1.5233   53.0158 N.am       `      0.0000
      7 C7         -7.2548    1.0215   53.8632 C.3        `      0.0000
      8 C8         -9.6727    0.9219   53.0998 C.3        `      0.0000
      9 H9        -10.2309    1.1040   52.1815 H          `      0.0000
     10 C10        -9.5653   -0.5975   53.3764 C.3        `      0.0000
     11 C11        -9.7751   -0.6638   54.9107 C.3        `      0.0000
     12 O12       -10.7661    0.3563   55.1596 O.3        `      0.0000
     13 C13       -10.4391    1.4770   54.3160 C.3        `      0.0000
     14 S14        -6.2037    4.4500   53.0950 S.3        `      0.0000
     15 C15        -4.6379    4.4567   52.2946 C.ar       `      0.0000
     16 N16        -3.5494    5.2095   52.4900 N.ar       `      0.0000
     17 C17        -2.4685    5.0400   51.7633 C.ar       `      0.0000
     18 N18        -2.3968    4.1282   50.8108 N.ar       `      0.0000
     19 C19        -3.4212    3.3336   50.5403 C.ar       `      0.0000
     20 N20        -3.3287    2.3860   49.5412 N.pl3      `      0.0000
     21 C21        -2.3157    1.3309   49.6237 C.3        `      0.0000
     22 C22        -1.6104    1.2070   48.2979 C.ar       `      0.0000
     23 N23        -0.3883    0.7139   48.2535 N.ar       `      0.0000
     24 C24         0.2672    0.5865   47.1161 C.ar       `      0.0000
     25 C25         1.6624    0.0167   47.1205 C.3        `      0.0000
     26 C26        -0.3105    0.9690   45.9206 C.ar       `      0.0000
     27 C27        -1.5947    1.4920   45.9276 C.ar       `      0.0000
     28 C28        -2.2541    1.6063   47.1417 C.ar       `      0.0000
     29 C29        -4.6172    3.4688   51.3003 C.ar       `      0.0000
     30 H30        -5.4146    0.8058   50.4743 H          `      0.0000
     31 H31        -7.0853    1.3623   50.2146 H          `      0.0000
     32 H32        -5.7649    2.0128   49.2138 H          `      0.0000
     33 H33        -6.9561    1.7971   54.5683 H          `      0.0000
     34 H34        -7.5984    0.1445   54.4116 H          `      0.0000
     35 H35        -6.4029    0.7496   53.2398 H          `      0.0000
     36 H36       -10.3491   -1.1446   52.8526 H          `      0.0000
     37 H37        -8.5799   -0.9742   53.1020 H          `      0.0000
     38 H38       -10.1509   -1.6439   55.2047 H          `      0.0000
     39 H39        -8.8477   -0.4341   55.4352 H          `      0.0000
     40 H40        -9.8094    2.1800   54.8612 H          `      0.0000
     41 H41       -11.3527    1.9727   53.9874 H          `      0.0000
     42 H42        -1.6099    5.6676   51.9508 H          `      0.0000
     43 H43        -3.9345    2.4187   48.7843 H          `      0.0000
     44 H44        -1.5915    1.5823   50.3986 H          `      0.0000
     45 H45        -2.7966    0.3840   49.8694 H          `      0.0000
     46 H46         1.6131   -1.0660   47.0051 H          `      0.0000
     47 H47         2.2321    0.4444   46.2955 H          `      0.0000
     48 H48         2.1511    0.2596   48.0640 H          `      0.0000
     49 H49         0.2314    0.8621   44.9925 H          `      0.0000
     50 H50        -2.0715    1.7995   45.0085 H          `      0.0000
     51 H51        -3.2553    2.0089   47.1844 H          `      0.0000
@<TRIPOS>BOND
     1     1     2    1
     2     1    30    1
     3     1    31    1
     4     1    32    1
     5     2    29    1
     6     2     3    2
     7     3     4    1
     8     3    14    1
     9     4     5    2
    10     4     6   am
    11     6     7    1
    12     6     8    1
    13     7    33    1
    14     7    34    1
    15     7    35    1
    16     8     9    1
    17     8    13    1
    18     8    10    1
    19    10    11    1
    20    10    36    1
    21    10    37    1
    22    11    12    1
    23    11    38    1
    24    11    39    1
    25    12    13    1
    26    13    40    1
    27    13    41    1
    28    14    15    1
    29    15    29   ar
    30    15    16   ar
    31    16    17   ar
    32    17    18   ar
    33    17    42    1
    34    18    19   ar
    35    19    20    1
    36    19    29   ar
    37    20    21    1
    38    20    43    1
    39    21    22    1
    40    21    44    1
    41    21    45    1
    42    22    28   ar
    43    22    23   ar
    44    23    24   ar
    45    24    25    1
    46    24    26   ar
    47    25    46    1
    48    25    47    1
    49    25    48    1
    50    26    27   ar
    51    26    49    1
    52    27    28   ar
    53    27    50    1
    54    28    51    1
@<TRIPOS>SUBSTRUCTURE
     1 `        1 TEMP              0 ****  ****    0 ROOT


##########                                Name:    ZINC000498646479
##########                DOCK_Rotatable_Bonds:                   7
##########                         Heavy_Atoms:                  29
##########                    Molecular_Weight:              407.58
##########                DOCK_Rotatable_Bonds:                   7
##########                       Formal_Charge:          -0.0199997
##########                     HBond_Acceptors:                   5
##########                        HBond_Donors:                   0
##########                         Heavy_Atoms:                  29
##########                          Grid_Score:          -32.982929
##########                     Grid_vdw_energy:          -33.147499
##########                      Grid_es_energy:            0.164569
##########           Internal_energy_repulsive:           21.253504

@<TRIPOS>MOLECULE
ZINC000498646479
 58 61 1 0 0
SMALL
USER_CHARGES


@<TRIPOS>ATOM
      1 C1         -8.1621   -1.4349   60.0794 C.3     1  ZINC000498646479   -0.1500
      2 C2         -9.6707   -1.3073   59.8586 C.3     1  ZINC000498646479   -0.0600
      3 C3         -9.9748   -1.4271   58.3874 C.2     1  ZINC000498646479   -0.1700
      4 C4        -10.1357   -2.5745   57.7265 C.2     1  ZINC000498646479   -0.1400
      5 C5        -10.4098   -2.4365   56.3766 C.2     1  ZINC000498646479   -0.1300
      6 C6        -10.4714   -1.1771   55.9415 C.2     1  ZINC000498646479   -0.1900
      7 C7        -10.7548   -0.7617   54.5209 C.3     1  ZINC000498646479    0.1300
      8 N8         -9.9513    0.4219   54.1872 N.3     1  ZINC000498646479   -0.5300
      9 C9        -10.6187    1.2404   53.1660 C.3     1  ZINC000498646479    0.0400
     10 C10        -9.8437    2.5489   52.9782 C.3     1  ZINC000498646479    0.1200
     11 N11        -8.4382    2.2226   52.6928 N.am    1  ZINC000498646479   -0.6100
     12 C12        -7.8058    2.7582   51.6299 C.2     1  ZINC000498646479    0.5200
     13 O13        -8.3959    3.5203   50.8939 O.2     1  ZINC000498646479   -0.5400
     14 C14        -6.3653    2.4101   51.3562 C.3     1  ZINC000498646479   -0.1000
     15 H15        -5.8280    2.3179   52.3000 H       1  ZINC000498646479    0.0900
     16 C16        -6.2966    1.0826   50.5984 C.3     1  ZINC000498646479   -0.1500
     17 C17        -5.7258    3.5134   50.5109 C.3     1  ZINC000498646479   -0.0600
     18 C18        -4.2271    3.3566   50.5309 C.ar    1  ZINC000498646479   -0.1200
     19 C19        -3.4795    3.7507   51.6552 C.ar    1  ZINC000498646479   -0.0200
     20 C20        -4.0797    4.3006   52.7972 C.ar    1  ZINC000498646479   -0.1200
     21 C21        -3.3016    4.6628   53.8549 C.ar    1  ZINC000498646479   -0.1000
     22 C22        -1.9183    4.4960   53.8196 C.ar    1  ZINC000498646479   -0.1200
     23 C23        -1.3017    3.9654   52.7276 C.ar    1  ZINC000498646479   -0.0900
     24 C24        -2.0709    3.5798   51.6182 C.ar    1  ZINC000498646479   -0.1100
     25 C25        -1.4915    3.0270   50.4651 C.ar    1  ZINC000498646479    0.1400
     26 N26        -2.2520    2.6810   49.4527 N.ar    1  ZINC000498646479   -0.4800
     27 C27        -3.5698    2.8249   49.4629 C.ar    1  ZINC000498646479    0.0800
     28 C28        -7.7411    1.2965   53.5982 C.3     1  ZINC000498646479    0.1100
     29 C29        -8.5990    0.0374   53.7617 C.3     1  ZINC000498646479    0.0400
     30 S30       -10.1794   -0.0753   57.2810 S.3     1  ZINC000498646479    0.1300
     31 H31        -7.9421   -1.3483   61.1435 H       1  ZINC000498646479    0.0600
     32 H32        -7.8225   -2.4049   59.7160 H       1  ZINC000498646479    0.0600
     33 H33        -7.6469   -0.6427   59.5363 H       1  ZINC000498646479    0.0600
     34 H34       -10.1858   -2.0996   60.4017 H       1  ZINC000498646479    0.0800
     35 H35       -10.0103   -0.3375   60.2220 H       1  ZINC000498646479    0.0700
     36 H36       -10.0577   -3.5381   58.2078 H       1  ZINC000498646479    0.1400
     37 H37       -10.5617   -3.2844   55.7251 H       1  ZINC000498646479    0.1300
     38 H38       -10.4974   -1.5777   53.8456 H       1  ZINC000498646479    0.0900
     39 H39       -11.8133   -0.5237   54.4161 H       1  ZINC000498646479    0.0500
     40 H40       -10.6453    0.6948   52.2229 H       1  ZINC000498646479    0.0400
     41 H41       -11.6364    1.4633   53.4866 H       1  ZINC000498646479    0.1000
     42 H42       -10.2664    3.1084   52.1437 H       1  ZINC000498646479    0.1000
     43 H43        -9.9035    3.1440   53.8895 H       1  ZINC000498646479    0.0800
     44 H44        -5.2543    0.7888   50.4741 H       1  ZINC000498646479    0.0700
     45 H45        -6.8258    0.3145   51.1625 H       1  ZINC000498646479    0.0600
     46 H46        -6.7607    1.1988   49.6191 H       1  ZINC000498646479    0.0700
     47 H47        -6.0852    3.4393   49.4845 H       1  ZINC000498646479    0.0900
     48 H48        -5.9947    4.4870   50.9206 H       1  ZINC000498646479    0.0800
     49 H49        -5.1504    4.4361   52.8376 H       1  ZINC000498646479    0.1400
     50 H50        -3.7636    5.0862   54.7345 H       1  ZINC000498646479    0.1300
     51 H51        -1.3256    4.7926   54.6722 H       1  ZINC000498646479    0.1300
     52 H52        -0.2289    3.8423   52.7149 H       1  ZINC000498646479    0.1300
     53 H53        -0.4219    2.8869   50.4110 H       1  ZINC000498646479    0.1600
     54 H54        -4.1377    2.5197   48.5963 H       1  ZINC000498646479    0.1500
     55 H55        -6.7738    1.0281   53.1736 H       1  ZINC000498646479    0.0900
     56 H56        -7.5989    1.7713   54.5690 H       1  ZINC000498646479    0.0800
     57 H57        -8.1518   -0.6122   54.5141 H       1  ZINC000498646479    0.0900
     58 H58        -8.6537   -0.4914   52.8101 H       1  ZINC000498646479    0.0400
@<TRIPOS>BOND
     1     1     2    1
     2     1    31    1
     3     1    32    1
     4     1    33    1
     5     2     3    1
     6     2    34    1
     7     2    35    1
     8     3    30    1
     9     3     4    2
    10     4     5    1
    11     4    36    1
    12     5     6    2
    13     5    37    1
    14     6     7    1
    15     6    30    1
    16     7     8    1
    17     7    38    1
    18     7    39    1
    19     8    29    1
    20     8     9    1
    21     9    10    1
    22     9    40    1
    23     9    41    1
    24    10    11    1
    25    10    42    1
    26    10    43    1
    27    11    12   am
    28    11    28    1
    29    12    13    2
    30    12    14    1
    31    14    15    1
    32    14    16    1
    33    14    17    1
    34    16    44    1
    35    16    45    1
    36    16    46    1
    37    17    18    1
    38    17    47    1
    39    17    48    1
    40    18    27   ar
    41    18    19   ar
    42    19    24   ar
    43    19    20   ar
    44    20    21   ar
    45    20    49    1
    46    21    22   ar
    47    21    50    1
    48    22    23   ar
    49    22    51    1
    50    23    24   ar
    51    23    52    1
    52    24    25   ar
    53    25    26   ar
    54    25    53    1
    55    26    27   ar
    56    27    54    1
    57    28    29    1
    58    28    55    1
    59    28    56    1
    60    29    57    1
    61    29    58    1
@<TRIPOS>SUBSTRUCTURE
     1 ZINC000498646479        1 TEMP              0 ****  ****    0 ROOT


##########                                Name:    ZINC000459459628
##########                DOCK_Rotatable_Bonds:                   8
##########                         Heavy_Atoms:                  27
##########                    Molecular_Weight:             377.366
##########                DOCK_Rotatable_Bonds:                   8
##########                       Formal_Charge:         -0.00999984
##########                     HBond_Acceptors:                   8
##########                        HBond_Donors:                   1
##########                         Heavy_Atoms:                  27
##########                          Grid_Score:          -32.952877
##########                     Grid_vdw_energy:          -32.835697
##########                      Grid_es_energy:           -0.117180
##########           Internal_energy_repulsive:           17.931435

@<TRIPOS>MOLECULE
ZINC000459459628
 45 46 1 0 0
SMALL
USER_CHARGES


@<TRIPOS>ATOM
      1 C1         -0.4694   -0.0058   47.6255 C.3     1  ZINC000459459628   -0.1600
      2 C2         -1.1455    1.3261   47.2940 C.3     1  ZINC000459459628    0.1600
      3 H3         -2.1340    1.1375   46.8752 H       1  ZINC000459459628    0.1100
      4 C4         -0.2969    2.0890   46.2747 C.3     1  ZINC000459459628   -0.0900
      5 C5         -0.3036    1.3495   44.9616 C.ar    1  ZINC000459459628   -0.0500
      6 C6         -1.4939    0.8788   44.4399 C.ar    1  ZINC000459459628   -0.1200
      7 C7         -1.5015    0.2001   43.2353 C.ar    1  ZINC000459459628   -0.0900
      8 C8         -0.3190   -0.0084   42.5516 C.ar    1  ZINC000459459628   -0.1600
      9 C9          0.8740    0.4632   43.0731 C.ar    1  ZINC000459459628    0.1000
     10 F10         2.0309    0.2600   42.4055 F       1  ZINC000459459628   -0.1400
     11 C11         0.8798    1.1472   44.2767 C.ar    1  ZINC000459459628   -0.1500
     12 N12        -1.2768    2.1245   48.5153 N.am    1  ZINC000459459628   -0.6200
     13 C13        -0.0877    2.7116   49.1380 C.3     1  ZINC000459459628    0.0700
     14 C14        -2.4914    2.3188   49.0660 C.2     1  ZINC000459459628    0.7100
     15 O15        -3.4785    1.8328   48.5484 O.2     1  ZINC000459459628   -0.5700
     16 N16        -2.6120    3.0520   50.1905 N.am    1  ZINC000459459628   -0.6800
     17 C17        -3.8754    3.2541   50.7634 C.ar    1  ZINC000459459628    0.1500
     18 C18        -4.7197    2.1794   50.9732 C.ar    1  ZINC000459459628   -0.0400
     19 C19        -5.9782    2.3852   51.5449 C.ar    1  ZINC000459459628   -0.0300
     20 C20        -6.8565    1.2758   51.7649 C.1     1  ZINC000459459628    0.2600
     21 N21        -7.5532    0.3957   51.9394 N.1     1  ZINC000459459628   -0.4100
     22 C22        -6.3775    3.6756   51.9018 C.ar    1  ZINC000459459628   -0.0500
     23 C23        -5.5312    4.7430   51.6896 C.ar    1  ZINC000459459628   -0.1700
     24 C24        -4.2792    4.5393   51.1273 C.ar    1  ZINC000459459628    0.1100
     25 O25        -3.4493    5.5945   50.9205 O.3     1  ZINC000459459628   -0.3200
     26 C26        -2.9245    6.2443   52.0800 C.3     1  ZINC000459459628    0.4100
     27 F27        -2.4099    5.2854   52.9591 F       1  ZINC000459459628   -0.1900
     28 F28        -1.9050    7.1239   51.7003 F       1  ZINC000459459628   -0.1900
     29 H29         0.5191    0.1829   48.0443 H       1  ZINC000459459628    0.0600
     30 H30        -1.0740   -0.5492   48.3517 H       1  ZINC000459459628    0.0600
     31 H31        -0.3718   -0.5998   46.7169 H       1  ZINC000459459628    0.0700
     32 H32        -0.7109    3.0871   46.1317 H       1  ZINC000459459628    0.0800
     33 H33         0.7264    2.1691   46.6414 H       1  ZINC000459459628    0.0900
     34 H34        -2.4185    1.0410   44.9738 H       1  ZINC000459459628    0.1300
     35 H35        -2.4321   -0.1675   42.8289 H       1  ZINC000459459628    0.1300
     36 H36        -0.3252   -0.5391   41.6110 H       1  ZINC000459459628    0.1300
     37 H37         1.8096    1.5157   44.6841 H       1  ZINC000459459628    0.1300
     38 H38         0.0856    3.7053   48.7248 H       1  ZINC000459459628    0.0600
     39 H39        -0.2412    2.7873   50.2145 H       1  ZINC000459459628    0.0700
     40 H40         0.7770    2.0791   48.9378 H       1  ZINC000459459628    0.0800
     41 H41        -1.8246    3.4397   50.6034 H       1  ZINC000459459628    0.4100
     42 H42        -4.4076    1.1834   50.6955 H       1  ZINC000459459628    0.1600
     43 H43        -7.3495    3.8370   52.3438 H       1  ZINC000459459628    0.1400
     44 H44        -5.8418    5.7399   51.9655 H       1  ZINC000459459628    0.1500
     45 H45        -3.7196    6.8018   52.5751 H       1  ZINC000459459628    0.1900
@<TRIPOS>BOND
     1     1     2    1
     2     1    29    1
     3     1    30    1
     4     1    31    1
     5     2     3    1
     6     2     4    1
     7     2    12    1
     8     4     5    1
     9     4    32    1
    10     4    33    1
    11     5    11   ar
    12     5     6   ar
    13     6     7   ar
    14     6    34    1
    15     7     8   ar
    16     7    35    1
    17     8     9   ar
    18     8    36    1
    19     9    10    1
    20     9    11   ar
    21    11    37    1
    22    12    13    1
    23    12    14   am
    24    13    38    1
    25    13    39    1
    26    13    40    1
    27    14    15    2
    28    14    16   am
    29    16    17    1
    30    16    41    1
    31    17    24   ar
    32    17    18   ar
    33    18    19   ar
    34    18    42    1
    35    19    20    1
    36    19    22   ar
    37    20    21    3
    38    22    23   ar
    39    22    43    1
    40    23    24   ar
    41    23    44    1
    42    24    25    1
    43    25    26    1
    44    26    27    1
    45    26    28    1
    46    26    45    1
@<TRIPOS>SUBSTRUCTURE
     1 ZINC000459459628        1 TEMP              0 ****  ****    0 ROOT


##########                                Name:    ZINC000847397179
##########                DOCK_Rotatable_Bonds:                   9
##########                         Heavy_Atoms:                  25
##########                    Molecular_Weight:             350.461
##########                DOCK_Rotatable_Bonds:                   9
##########                       Formal_Charge:          0.00999979
##########                     HBond_Acceptors:                   7
##########                        HBond_Donors:                   2
##########                         Heavy_Atoms:                  25
##########                          Grid_Score:          -32.937744
##########                     Grid_vdw_energy:          -31.446093
##########                      Grid_es_energy:           -1.491653
##########           Internal_energy_repulsive:           85.329872

@<TRIPOS>MOLECULE
ZINC000847397179
 55 56 1 0 0
SMALL
USER_CHARGES


@<TRIPOS>ATOM
      1 C1         -6.3671    4.6430   51.0563 C.3     1  ZINC000847397179   -0.1500
      2 C2         -5.7933    3.2249   51.0739 C.3     1  ZINC000847397179   -0.1000
      3 H3         -6.1543    2.6761   50.2042 H       1  ZINC000847397179    0.0900
      4 C4         -6.2408    2.5095   52.3502 C.3     1  ZINC000847397179   -0.0200
      5 C5         -6.5620    1.0715   52.0338 C.2     1  ZINC000847397179    0.0100
      6 C6         -7.3932    0.2743   52.7316 C.2     1  ZINC000847397179   -0.0500
      7 N7         -7.3960   -0.9418   52.1033 N.pl3   1  ZINC000847397179   -0.5700
      8 C8         -6.5659   -0.8453   51.0426 C.2     1  ZINC000847397179    0.1800
      9 N9         -6.0745    0.3631   51.0045 N.2     1  ZINC000847397179   -0.4900
     10 C10        -4.2882    3.2915   51.0368 C.2     1  ZINC000847397179    0.5200
     11 O11        -3.6948    4.0266   51.7974 O.2     1  ZINC000847397179   -0.5300
     12 N12        -3.6016    2.5343   50.1585 N.am    1  ZINC000847397179   -0.7400
     13 C13        -2.1386    2.6004   50.1212 C.3     1  ZINC000847397179    0.1200
     14 C14        -1.5954    1.4234   49.3085 C.3     1  ZINC000847397179    0.1500
     15 H15        -1.7959    0.4912   49.8365 H       1  ZINC000847397179    0.0800
     16 C16        -2.2730    1.3917   47.9349 C.3     1  ZINC000847397179   -0.1300
     17 C17        -1.6280    0.3006   47.0773 C.3     1  ZINC000847397179   -0.1200
     18 C18        -0.1442    0.6176   46.8767 C.3     1  ZINC000847397179   -0.1400
     19 C19         0.5576    0.6405   48.2382 C.3     1  ZINC000847397179    0.1100
     20 N20        -0.1467    1.5813   49.1207 N.am    1  ZINC000847397179   -0.5900
     21 C21         0.5226    2.5727   49.7416 C.2     1  ZINC000847397179    0.6500
     22 O22        -0.0712    3.3441   50.4687 O.2     1  ZINC000847397179   -0.5500
     23 O23         1.8492    2.7083   49.5562 O.3     1  ZINC000847397179   -0.3600
     24 C24         2.7189    2.1050   50.5501 C.3     1  ZINC000847397179    0.1400
     25 C25         1.8847    1.2505   51.5065 C.3     1  ZINC000847397179   -0.1800
     26 C26         3.7567    1.2237   49.8521 C.3     1  ZINC000847397179   -0.1400
     27 C27         3.4319    3.2051   51.3390 C.3     1  ZINC000847397179   -0.1800
     28 H28        -6.0062    5.1919   51.9261 H       1  ZINC000847397179    0.0500
     29 H29        -6.0483    5.1527   50.1470 H       1  ZINC000847397179    0.0500
     30 H30        -7.4558    4.5949   51.0832 H       1  ZINC000847397179    0.1000
     31 H31        -5.4401    2.5490   53.0887 H       1  ZINC000847397179    0.0800
     32 H32        -7.1281    3.0005   52.7498 H       1  ZINC000847397179    0.0800
     33 H33        -7.9502    0.5426   53.6171 H       1  ZINC000847397179    0.1800
     34 H34        -7.9002   -1.7264   52.3701 H       1  ZINC000847397179    0.4200
     35 H35        -6.3478   -1.6359   50.3399 H       1  ZINC000847397179    0.2100
     36 H36        -4.0761    1.9455   49.5510 H       1  ZINC000847397179    0.3900
     37 H37        -1.8288    3.5365   49.6567 H       1  ZINC000847397179    0.0800
     38 H38        -1.7467    2.5518   51.1372 H       1  ZINC000847397179    0.1000
     39 H39        -3.3347    1.1776   48.0579 H       1  ZINC000847397179    0.0800
     40 H40        -2.1505    2.3583   47.4464 H       1  ZINC000847397179    0.0700
     41 H41        -1.7290   -0.6622   47.5782 H       1  ZINC000847397179    0.0700
     42 H42        -2.1247    0.2594   46.1080 H       1  ZINC000847397179    0.0700
     43 H43         0.3094   -0.1473   46.2465 H       1  ZINC000847397179    0.0800
     44 H44        -0.0417    1.5916   46.3982 H       1  ZINC000847397179    0.0700
     45 H45         0.5347   -0.3565   48.6780 H       1  ZINC000847397179    0.0700
     46 H46         1.5911    0.9626   48.1112 H       1  ZINC000847397179    0.0900
     47 H47         1.3766    0.4668   50.9446 H       1  ZINC000847397179    0.0600
     48 H48         2.5375    0.7977   52.2527 H       1  ZINC000847397179    0.0700
     49 H49         1.1453    1.8785   52.0038 H       1  ZINC000847397179    0.0900
     50 H50         4.3511    1.8324   49.1708 H       1  ZINC000847397179    0.0700
     51 H51         4.4095    0.7708   50.5983 H       1  ZINC000847397179    0.0800
     52 H52         3.2488    0.4399   49.2901 H       1  ZINC000847397179    0.0700
     53 H53         2.6925    3.8330   51.8363 H       1  ZINC000847397179    0.0900
     54 H54         4.0847    2.7523   52.0852 H       1  ZINC000847397179    0.0700
     55 H55         4.0262    3.8139   50.6576 H       1  ZINC000847397179    0.0600
@<TRIPOS>BOND
     1     1     2    1
     2     1    28    1
     3     1    29    1
     4     1    30    1
     5     2     3    1
     6     2     4    1
     7     2    10    1
     8     4     5    1
     9     4    31    1
    10     4    32    1
    11     5     9    1
    12     5     6    2
    13     6     7    1
    14     6    33    1
    15     7     8    1
    16     7    34    1
    17     8     9    2
    18     8    35    1
    19    10    11    2
    20    10    12   am
    21    12    13    1
    22    12    36    1
    23    13    14    1
    24    13    37    1
    25    13    38    1
    26    14    15    1
    27    14    20    1
    28    14    16    1
    29    16    17    1
    30    16    39    1
    31    16    40    1
    32    17    18    1
    33    17    41    1
    34    17    42    1
    35    18    19    1
    36    18    43    1
    37    18    44    1
    38    19    20    1
    39    19    45    1
    40    19    46    1
    41    20    21   am
    42    21    22    2
    43    21    23    1
    44    23    24    1
    45    24    25    1
    46    24    26    1
    47    24    27    1
    48    25    47    1
    49    25    48    1
    50    25    49    1
    51    26    50    1
    52    26    51    1
    53    26    52    1
    54    27    53    1
    55    27    54    1
    56    27    55    1
@<TRIPOS>SUBSTRUCTURE
     1 ZINC000847397179        1 TEMP              0 ****  ****    0 ROOT


##########                                Name:    ZINC001289410668
##########                DOCK_Rotatable_Bonds:                  11
##########                         Heavy_Atoms:                  26
##########                    Molecular_Weight:             362.515
##########                DOCK_Rotatable_Bonds:                  11
##########                       Formal_Charge:          -0.0400008
##########                     HBond_Acceptors:                   6
##########                        HBond_Donors:                   1
##########                         Heavy_Atoms:                  26
##########                          Grid_Score:          -32.925331
##########                     Grid_vdw_energy:          -32.703053
##########                      Grid_es_energy:           -0.222281
##########           Internal_energy_repulsive:           10.420022

@<TRIPOS>MOLECULE
ZINC001289410668
 60 61 1 0 0
SMALL
USER_CHARGES


@<TRIPOS>ATOM
      1 C1         -1.0748    1.8788   48.5547 C.3     1  ZINC001289410668   -0.1500
      2 C2         -2.5741    1.6839   48.7894 C.3     1  ZINC001289410668   -0.1300
      3 C3         -3.0614    2.6887   49.8353 C.3     1  ZINC001289410668   -0.1200
      4 C4         -4.5372    2.4284   50.1439 C.3     1  ZINC001289410668   -0.1200
      5 C5         -5.0241    3.4321   51.1910 C.3     1  ZINC001289410668   -0.1100
      6 C6         -6.4953    3.1613   51.5117 C.3     1  ZINC001289410668   -0.1400
      7 C7         -6.5886    2.1962   52.6654 C.2     1  ZINC001289410668    0.5100
      8 O8         -5.9442    1.1689   52.6503 O.2     1  ZINC001289410668   -0.5300
      9 N9         -7.3882    2.4748   53.7140 N.am    1  ZINC001289410668   -0.7200
     10 C10        -7.4775    1.5375   54.8364 C.3     1  ZINC001289410668    0.1400
     11 H11        -6.5262    1.0295   54.9951 H       1  ZINC001289410668    0.1100
     12 C12        -8.6221    0.5170   54.6178 C.3     1  ZINC001289410668    0.0800
     13 N13        -9.0014    0.0791   55.9735 N.am    1  ZINC001289410668   -0.6200
     14 C14        -9.5988   -1.0885   56.2835 C.2     1  ZINC001289410668    0.5100
     15 O15        -9.8709   -1.8819   55.4074 O.2     1  ZINC001289410668   -0.5100
     16 C16        -9.9289   -1.4083   57.7187 C.3     1  ZINC001289410668    0.0900
     17 N17       -10.6789   -2.6653   57.7789 N.pl3   1  ZINC001289410668   -0.4500
     18 C18       -10.1603   -3.9101   58.0138 C.2     1  ZINC001289410668   -0.0500
     19 C19       -11.1929   -4.7743   57.9842 C.2     1  ZINC001289410668   -0.0200
     20 N20       -12.3113   -4.0761   57.7379 N.2     1  ZINC001289410668   -0.4800
     21 C21       -12.0119   -2.8115   57.6189 C.2     1  ZINC001289410668    0.2300
     22 C22       -12.9901   -1.6998   57.3396 C.3     1  ZINC001289410668   -0.0100
     23 C23       -14.2037   -2.2628   56.5970 C.3     1  ZINC001289410668   -0.1400
     24 C24       -13.4447   -1.0766   58.6609 C.3     1  ZINC001289410668   -0.1400
     25 C25        -8.6192    1.1269   56.9315 C.3     1  ZINC001289410668    0.1100
     26 C26        -7.9447    2.2593   56.1279 C.3     1  ZINC001289410668   -0.1100
     27 H27        -8.6626    3.0449   55.8917 H       1  ZINC001289410668    0.0900
     28 C28        -6.7519    2.8319   56.8961 C.3     1  ZINC001289410668   -0.1400
     29 H29        -0.7276    1.1629   47.8097 H       1  ZINC001289410668    0.0500
     30 H30        -0.8917    2.8923   48.1979 H       1  ZINC001289410668    0.0500
     31 H31        -0.5371    1.7200   49.4895 H       1  ZINC001289410668    0.0500
     32 H32        -3.1119    1.8427   47.8547 H       1  ZINC001289410668    0.0600
     33 H33        -2.7572    0.6704   49.1463 H       1  ZINC001289410668    0.0600
     34 H34        -2.4745    2.5777   50.7470 H       1  ZINC001289410668    0.0600
     35 H35        -2.9441    3.7011   49.4487 H       1  ZINC001289410668    0.0600
     36 H36        -5.1243    2.5408   49.2324 H       1  ZINC001289410668    0.0600
     37 H37        -4.6547    1.4156   50.5291 H       1  ZINC001289410668    0.0600
     38 H38        -4.4291    3.3277   52.0983 H       1  ZINC001289410668    0.0700
     39 H39        -4.9175    4.4443   50.8012 H       1  ZINC001289410668    0.0700
     40 H40        -6.9868    4.0965   51.7797 H       1  ZINC001289410668    0.1000
     41 H41        -6.9845    2.7311   50.6377 H       1  ZINC001289410668    0.1000
     42 H42        -7.9044    3.2959   53.7256 H       1  ZINC001289410668    0.4000
     43 H43        -9.4676    0.9954   54.1233 H       1  ZINC001289410668    0.0800
     44 H44        -8.2680   -0.3304   54.0307 H       1  ZINC001289410668    0.0800
     45 H45        -9.0060   -1.5082   58.2901 H       1  ZINC001289410668    0.1200
     46 H46       -10.5323   -0.6046   58.1405 H       1  ZINC001289410668    0.1200
     47 H47        -9.1226   -4.1527   58.1889 H       1  ZINC001289410668    0.1700
     48 H48       -11.1311   -5.8423   58.1326 H       1  ZINC001289410668    0.1700
     49 H49       -12.5094   -0.9385   56.7252 H       1  ZINC001289410668    0.0700
     50 H50       -14.6844   -3.0240   57.2114 H       1  ZINC001289410668    0.0700
     51 H51       -14.9112   -1.4587   56.3951 H       1  ZINC001289410668    0.0600
     52 H52       -13.8798   -2.7067   55.6557 H       1  ZINC001289410668    0.0500
     53 H53       -13.9256   -1.8379   59.2752 H       1  ZINC001289410668    0.0700
     54 H54       -12.5802   -0.6755   59.1899 H       1  ZINC001289410668    0.0600
     55 H55       -14.1523   -0.2725   58.4590 H       1  ZINC001289410668    0.0600
     56 H56        -9.5061    1.5082   57.4373 H       1  ZINC001289410668    0.0800
     57 H57        -7.9181    0.7233   57.6620 H       1  ZINC001289410668    0.0800
     58 H58        -6.0331    2.0373   57.0959 H       1  ZINC001289410668    0.0600
     59 H59        -6.2760    3.6108   56.3002 H       1  ZINC001289410668    0.0600
     60 H60        -7.0967    3.2557   57.8393 H       1  ZINC001289410668    0.0700
@<TRIPOS>BOND
     1     1     2    1
     2     1    29    1
     3     1    30    1
     4     1    31    1
     5     2     3    1
     6     2    32    1
     7     2    33    1
     8     3     4    1
     9     3    34    1
    10     3    35    1
    11     4     5    1
    12     4    36    1
    13     4    37    1
    14     5     6    1
    15     5    38    1
    16     5    39    1
    17     6     7    1
    18     6    40    1
    19     6    41    1
    20     7     8    2
    21     7     9   am
    22     9    10    1
    23     9    42    1
    24    10    11    1
    25    10    26    1
    26    10    12    1
    27    12    13    1
    28    12    43    1
    29    12    44    1
    30    13    14   am
    31    13    25    1
    32    14    15    2
    33    14    16    1
    34    16    17    1
    35    16    45    1
    36    16    46    1
    37    17    21    1
    38    17    18    1
    39    18    19    2
    40    18    47    1
    41    19    20    1
    42    19    48    1
    43    20    21    2
    44    21    22    1
    45    22    23    1
    46    22    24    1
    47    22    49    1
    48    23    50    1
    49    23    51    1
    50    23    52    1
    51    24    53    1
    52    24    54    1
    53    24    55    1
    54    25    26    1
    55    25    56    1
    56    25    57    1
    57    26    27    1
    58    26    28    1
    59    28    58    1
    60    28    59    1
    61    28    60    1
@<TRIPOS>SUBSTRUCTURE
     1 ZINC001289410668        1 TEMP              0 ****  ****    0 ROOT


##########                                Name:    ZINC000787750060
##########                DOCK_Rotatable_Bonds:                   6
##########                         Heavy_Atoms:                  24
##########                    Molecular_Weight:             347.438
##########                DOCK_Rotatable_Bonds:                   6
##########                       Formal_Charge:           0.0200003
##########                     HBond_Acceptors:                   7
##########                        HBond_Donors:                   2
##########                         Heavy_Atoms:                  24
##########                          Grid_Score:          -32.922611
##########                     Grid_vdw_energy:          -31.489571
##########                      Grid_es_energy:           -1.433042
##########           Internal_energy_repulsive:            6.255726

@<TRIPOS>MOLECULE
ZINC000787750060
 45 47 1 0 0
SMALL
USER_CHARGES


@<TRIPOS>ATOM
      1 C1         -9.5798   -0.7475   54.8941 C.3     1  ZINC000787750060   -0.1200
      2 C2         -8.6305    0.2283   54.2476 C.ar    1  ZINC000787750060   -0.0400
      3 C3         -8.2901    0.0766   52.9136 C.ar    1  ZINC000787750060   -0.1300
      4 C4         -7.4228    0.9629   52.3121 C.ar    1  ZINC000787750060   -0.0700
      5 C5         -6.8844    2.0196   53.0499 C.ar    1  ZINC000787750060   -0.1700
      6 C6         -5.9558    2.9724   52.4123 C.2     1  ZINC000787750060    0.5600
      7 O7         -6.3789    3.8061   51.6349 O.2     1  ZINC000787750060   -0.5200
      8 N8         -4.6383    2.9187   52.6916 N.am    1  ZINC000787750060   -0.7300
      9 C9         -3.7160    3.8637   52.0571 C.3     1  ZINC000787750060    0.2100
     10 C10        -3.0079    3.1836   50.9138 C.2     1  ZINC000787750060   -0.2800
     11 C11        -1.8728    3.5891   50.3439 C.2     1  ZINC000787750060    0.0900
     12 N12        -1.4493    2.8214   49.3555 N.2     1  ZINC000787750060   -0.5200
     13 C13        -2.1750    1.7866   49.0649 C.2     1  ZINC000787750060    0.2300
     14 N14        -1.8887    0.8719   48.0636 N.3     1  ZINC000787750060   -0.4500
     15 C15        -1.1093   -0.2582   48.5895 C.3     1  ZINC000787750060    0.0200
     16 C16        -0.8671   -1.2705   47.4668 C.3     1  ZINC000787750060    0.0600
     17 O17        -0.2082   -0.6185   46.3777 O.3     1  ZINC000787750060   -0.3800
     18 C18        -0.9399    0.4866   45.8407 C.3     1  ZINC000787750060    0.0600
     19 C19        -1.1828    1.5168   46.9470 C.3     1  ZINC000787750060    0.0300
     20 S20        -3.5317    1.7103   50.1025 S.3     1  ZINC000787750060    0.1700
     21 C21        -7.2317    2.1699   54.3997 C.ar    1  ZINC000787750060    0.1700
     22 O22        -6.7150    3.1923   55.1264 O.3     1  ZINC000787750060   -0.4700
     23 C23        -8.1094    1.2716   54.9873 C.ar    1  ZINC000787750060   -0.1200
     24 C24        -8.4868    1.4276   56.4379 C.3     1  ZINC000787750060   -0.1200
     25 H25       -10.6032   -0.3914   54.7756 H       1  ZINC000787750060    0.0800
     26 H26        -9.4774   -1.7231   54.4190 H       1  ZINC000787750060    0.0700
     27 H27        -9.3456   -0.8335   55.9551 H       1  ZINC000787750060    0.0800
     28 H28        -8.7059   -0.7401   52.3422 H       1  ZINC000787750060    0.1300
     29 H29        -7.1597    0.8405   51.2719 H       1  ZINC000787750060    0.1300
     30 H30        -4.3009    2.2545   53.3126 H       1  ZINC000787750060    0.4000
     31 H31        -4.2754    4.7199   51.6802 H       1  ZINC000787750060    0.0900
     32 H32        -2.9826    4.2025   52.7887 H       1  ZINC000787750060    0.0800
     33 H33        -1.3422    4.4735   50.6643 H       1  ZINC000787750060    0.1800
     34 H34        -0.1525    0.1035   48.9660 H       1  ZINC000787750060    0.0600
     35 H35        -1.6619   -0.7367   49.3980 H       1  ZINC000787750060    0.1000
     36 H36        -0.2412   -2.0824   47.8375 H       1  ZINC000787750060    0.1100
     37 H37        -1.8216   -1.6722   47.1268 H       1  ZINC000787750060    0.0700
     38 H38        -0.3666    0.9458   45.0353 H       1  ZINC000787750060    0.1100
     39 H39        -1.8966    0.1362   45.4534 H       1  ZINC000787750060    0.0600
     40 H40        -1.7891    2.3341   46.5564 H       1  ZINC000787750060    0.1000
     41 H41        -0.2271    1.9069   47.2972 H       1  ZINC000787750060    0.0700
     42 H42        -5.8406    3.4817   54.8317 H       1  ZINC000787750060    0.4000
     43 H43        -9.3695    2.0622   56.5174 H       1  ZINC000787750060    0.0700
     44 H44        -8.7037    0.4483   56.8643 H       1  ZINC000787750060    0.0700
     45 H45        -7.6601    1.8854   56.9812 H       1  ZINC000787750060    0.0800
@<TRIPOS>BOND
     1     1     2    1
     2     1    25    1
     3     1    26    1
     4     1    27    1
     5     2    23   ar
     6     2     3   ar
     7     3     4   ar
     8     3    28    1
     9     4     5   ar
    10     4    29    1
    11     5     6    1
    12     5    21   ar
    13     6     7    2
    14     6     8   am
    15     8     9    1
    16     8    30    1
    17     9    10    1
    18     9    31    1
    19     9    32    1
    20    10    20    1
    21    10    11    2
    22    11    12    1
    23    11    33    1
    24    12    13    2
    25    13    14    1
    26    13    20    1
    27    14    19    1
    28    14    15    1
    29    15    16    1
    30    15    34    1
    31    15    35    1
    32    16    17    1
    33    16    36    1
    34    16    37    1
    35    17    18    1
    36    18    19    1
    37    18    38    1
    38    18    39    1
    39    19    40    1
    40    19    41    1
    41    21    22    1
    42    21    23   ar
    43    22    42    1
    44    23    24    1
    45    24    43    1
    46    24    44    1
    47    24    45    1
@<TRIPOS>SUBSTRUCTURE
     1 ZINC000787750060        1 TEMP              0 ****  ****    0 ROOT


##########                                Name:    ZINC000426805817
##########                DOCK_Rotatable_Bonds:                   6
##########                         Heavy_Atoms:                  26
##########                    Molecular_Weight:             412.286
##########                DOCK_Rotatable_Bonds:                   6
##########                       Formal_Charge:          -0.0100001
##########                     HBond_Acceptors:                   5
##########                        HBond_Donors:                   4
##########                         Heavy_Atoms:                  26
##########                          Grid_Score:          -32.921303
##########                     Grid_vdw_energy:          -29.401539
##########                      Grid_es_energy:           -3.519763
##########           Internal_energy_repulsive:            4.878467

@<TRIPOS>MOLECULE
ZINC000426805817
 44 47 1 0 0
SMALL
USER_CHARGES


@<TRIPOS>ATOM
      1 O1         -1.1052   -1.5072   47.2886 O.co2   1  ZINC000426805817   -0.6300
      2 C2         -0.8905   -0.3186   47.1225 C.2     1  ZINC000426805817    0.5000
      3 O3         -1.4902    0.2938   46.2553 O.co2   1  ZINC000426805817   -0.6800
      4 C4          0.1114    0.3950   47.9930 C.3     1  ZINC000426805817   -0.0500
      5 H5          0.2517    1.4121   47.6268 H       1  ZINC000426805817    0.1300
      6 C6         -0.4033    0.4381   49.4332 C.3     1  ZINC000426805817   -0.0500
      7 C7         -0.7339    1.8603   49.8062 C.2     1  ZINC000426805817   -0.1900
      8 C8          0.1329    2.8795   49.9147 C.2     1  ZINC000426805817    0.0500
      9 N9         -0.5316    4.0211   50.2715 N.pl3   1  ZINC000426805817   -0.5900
     10 C10        -1.8770    3.7576   50.4050 C.ar    1  ZINC000426805817    0.1100
     11 C11        -2.9755    4.5407   50.7423 C.ar    1  ZINC000426805817   -0.1200
     12 C12        -4.2315    3.9772   50.7943 C.ar    1  ZINC000426805817   -0.0700
     13 C13        -4.4154    2.6298   50.5125 C.ar    1  ZINC000426805817   -0.1100
     14 Br14       -6.1501    1.8810   50.5909 Br      1  ZINC000426805817   -0.0400
     15 C15        -3.3415    1.8361   50.1757 C.ar    1  ZINC000426805817   -0.0400
     16 C16        -2.0632    2.3941   50.1131 C.ar    1  ZINC000426805817   -0.1000
     17 N17         1.3934   -0.3211   47.9523 N.4     1  ZINC000426805817   -0.4800
     18 H18         1.5401   -0.7982   48.8292 H       1  ZINC000426805817    0.4000
     19 H19         1.3786   -0.9947   47.2013 H       1  ZINC000426805817    0.4200
     20 C20         2.4833    0.6381   47.7284 C.3     1  ZINC000426805817    0.0400
     21 C21         2.4806    1.0737   46.2858 C.ar    1  ZINC000426805817   -0.1600
     22 C22         1.9215    2.2957   45.9270 C.ar    1  ZINC000426805817    0.1100
     23 N23         1.3095    3.3035   46.6381 N.pl3   1  ZINC000426805817   -0.5900
     24 C24         0.9327    4.3088   45.7897 C.2     1  ZINC000426805817    0.0600
     25 C25         1.2774    3.9981   44.5301 C.2     1  ZINC000426805817   -0.2000
     26 C26         1.9283    2.6866   44.5754 C.ar    1  ZINC000426805817   -0.1100
     27 C27         2.4927    1.8496   43.6112 C.ar    1  ZINC000426805817   -0.0400
     28 C28         3.0365    0.6532   43.9859 C.ar    1  ZINC000426805817   -0.1500
     29 C29         3.0370    0.2655   45.3186 C.ar    1  ZINC000426805817   -0.0700
     30 H30        -1.2990   -0.1773   49.5175 H       1  ZINC000426805817    0.1200
     31 H31         0.3650    0.0555   50.1051 H       1  ZINC000426805817    0.0900
     32 H32         1.1972    2.8087   49.7455 H       1  ZINC000426805817    0.1700
     33 H33        -0.1168    4.8870   50.4099 H       1  ZINC000426805817    0.4200
     34 H34        -2.8441    5.5896   50.9638 H       1  ZINC000426805817    0.1300
     35 H35        -5.0815    4.5893   51.0571 H       1  ZINC000426805817    0.1400
     36 H36        -3.4879    0.7886   49.9571 H       1  ZINC000426805817    0.1400
     37 H37         2.3401    1.5070   48.3706 H       1  ZINC000426805817    0.1500
     38 H38         3.4370    0.1657   47.9635 H       1  ZINC000426805817    0.1300
     39 H39         1.1663    3.3010   47.5975 H       1  ZINC000426805817    0.4300
     40 H40         0.4319    5.2176   46.0892 H       1  ZINC000426805817    0.1800
     41 H41         1.1069    4.6006   43.6502 H       1  ZINC000426805817    0.1500
     42 H42         2.4992    2.1464   42.5728 H       1  ZINC000426805817    0.1300
     43 H43         3.4730    0.0059   43.2395 H       1  ZINC000426805817    0.1300
     44 H44         3.4705   -0.6831   45.5991 H       1  ZINC000426805817    0.1300
@<TRIPOS>BOND
     1     1     2   ar
     2     2     3   ar
     3     2     4    1
     4     4     5    1
     5     4     6    1
     6     4    17    1
     7     6     7    1
     8     6    30    1
     9     6    31    1
    10     7    16    1
    11     7     8    2
    12     8     9    1
    13     8    32    1
    14     9    10    1
    15     9    33    1
    16    10    16   ar
    17    10    11   ar
    18    11    12   ar
    19    11    34    1
    20    12    13   ar
    21    12    35    1
    22    13    14    1
    23    13    15   ar
    24    15    16   ar
    25    15    36    1
    26    17    18    1
    27    17    19    1
    28    17    20    1
    29    20    21    1
    30    20    37    1
    31    20    38    1
    32    21    29   ar
    33    21    22   ar
    34    22    26   ar
    35    22    23    1
    36    23    24    1
    37    23    39    1
    38    24    25    2
    39    24    40    1
    40    25    26    1
    41    25    41    1
    42    26    27   ar
    43    27    28   ar
    44    27    42    1
    45    28    29   ar
    46    28    43    1
    47    29    44    1
@<TRIPOS>SUBSTRUCTURE
     1 ZINC000426805817        1 TEMP              0 ****  ****    0 ROOT


##########                                Name:    ZINC001082278299
##########                DOCK_Rotatable_Bonds:                   9
##########                         Heavy_Atoms:                  25
##########                    Molecular_Weight:              346.47
##########                DOCK_Rotatable_Bonds:                   9
##########                       Formal_Charge:           0.0200001
##########                     HBond_Acceptors:                   5
##########                        HBond_Donors:                   1
##########                         Heavy_Atoms:                  25
##########                          Grid_Score:          -32.912094
##########                     Grid_vdw_energy:          -31.399050
##########                      Grid_es_energy:           -1.513043
##########           Internal_energy_repulsive:           94.917015

@<TRIPOS>MOLECULE
ZINC001082278299
 55 57 1 0 0
SMALL
USER_CHARGES


@<TRIPOS>ATOM
      1 C1         -5.5565    4.1237   53.7781 C.3     1  ZINC001082278299   -0.1300
      2 C2         -5.0781    3.7258   52.4056 C.2     1  ZINC001082278299    0.0000
      3 C3         -5.0704    2.4444   52.0496 C.2     1  ZINC001082278299   -0.2300
      4 C4         -4.6035    2.0559   50.7099 C.2     1  ZINC001082278299    0.5400
      5 O5         -5.3610    1.4963   49.9405 O.2     1  ZINC001082278299   -0.5300
      6 N6         -3.3361    2.3201   50.3351 N.am    1  ZINC001082278299   -0.7400
      7 C7         -2.8707    1.9316   49.0014 C.3     1  ZINC001082278299    0.1300
      8 C8         -1.6229    1.0559   49.1319 C.3     1  ZINC001082278299    0.1400
      9 H9         -1.8723    0.1426   49.6721 H       1  ZINC001082278299    0.0800
     10 C10        -0.5354    1.8215   49.8922 C.3     1  ZINC001082278299   -0.1300
     11 C11         0.7539    0.9969   49.8983 C.3     1  ZINC001082278299   -0.1200
     12 C12         1.2305    0.7816   48.4602 C.3     1  ZINC001082278299   -0.1400
     13 C13         0.1631    0.0041   47.6837 C.3     1  ZINC001082278299    0.1100
     14 N14        -1.1182    0.7151   47.7947 N.am    1  ZINC001082278299   -0.6100
     15 C15        -1.8143    1.0525   46.6910 C.2     1  ZINC001082278299    0.5100
     16 O16        -2.8706    1.6390   46.7960 O.2     1  ZINC001082278299   -0.5100
     17 C17        -1.2801    0.7008   45.3265 C.3     1  ZINC001082278299   -0.1100
     18 C18        -0.0406    1.5114   45.0480 C.2     1  ZINC001082278299   -0.0900
     19 C19        -0.0159    2.7598   45.4093 C.2     1  ZINC001082278299   -0.1800
     20 C20         1.1667    3.6546   45.1696 C.3     1  ZINC001082278299    0.0900
     21 O21         2.3189    2.8720   44.8501 O.3     1  ZINC001082278299   -0.3800
     22 C22         2.0744    1.9108   43.8158 C.3     1  ZINC001082278299    0.0600
     23 C23         1.1227    0.8435   44.3682 C.3     1  ZINC001082278299   -0.1100
     24 C24        -4.6084    4.7798   51.4364 C.3     1  ZINC001082278299   -0.1200
     25 C25        -4.1937    6.1351   52.0128 C.3     1  ZINC001082278299   -0.1900
     26 C26        -3.1302    5.1722   51.4809 C.3     1  ZINC001082278299   -0.1500
     27 H27        -4.7144    4.1251   54.4701 H       1  ZINC001082278299    0.0800
     28 H28        -5.9934    5.1214   53.7355 H       1  ZINC001082278299    0.0800
     29 H29        -6.3078    3.4124   54.1214 H       1  ZINC001082278299    0.0700
     30 H30        -5.4070    1.6890   52.7443 H       1  ZINC001082278299    0.1300
     31 H31        -2.7323    2.7674   50.9483 H       1  ZINC001082278299    0.3900
     32 H32        -3.6551    1.3725   48.4914 H       1  ZINC001082278299    0.0900
     33 H33        -2.6288    2.8253   48.4263 H       1  ZINC001082278299    0.0800
     34 H34        -0.3533    2.7778   49.4018 H       1  ZINC001082278299    0.0700
     35 H35        -0.8616    1.9944   50.9178 H       1  ZINC001082278299    0.0800
     36 H36         1.5222    1.5284   50.4599 H       1  ZINC001082278299    0.0700
     37 H37         0.5649    0.0310   50.3667 H       1  ZINC001082278299    0.0700
     38 H38         1.3961    1.7476   47.9833 H       1  ZINC001082278299    0.0700
     39 H39         2.1613    0.2143   48.4665 H       1  ZINC001082278299    0.0800
     40 H40         0.4525   -0.0660   46.6351 H       1  ZINC001082278299    0.0900
     41 H41         0.0612   -0.9962   48.1043 H       1  ZINC001082278299    0.0700
     42 H42        -1.0349   -0.3608   45.2949 H       1  ZINC001082278299    0.1000
     43 H43        -2.0357    0.9216   44.5725 H       1  ZINC001082278299    0.1000
     44 H44        -0.8836    3.1718   45.9031 H       1  ZINC001082278299    0.1100
     45 H45         0.9474    4.3293   44.3420 H       1  ZINC001082278299    0.0600
     46 H46         1.3650    4.2399   46.0675 H       1  ZINC001082278299    0.1000
     47 H47         1.6201    2.4039   42.9564 H       1  ZINC001082278299    0.0600
     48 H48         3.0137    1.4448   43.5182 H       1  ZINC001082278299    0.1000
     49 H49         1.6564    0.2156   45.0817 H       1  ZINC001082278299    0.0800
     50 H50         0.7532    0.2274   43.5485 H       1  ZINC001082278299    0.0800
     51 H51        -5.0989    4.7754   50.4629 H       1  ZINC001082278299    0.1300
     52 H52        -4.4113    7.0226   51.4186 H       1  ZINC001082278299    0.1000
     53 H53        -4.2606    6.2642   53.0931 H       1  ZINC001082278299    0.1000
     54 H54        -2.4975    4.6679   52.2114 H       1  ZINC001082278299    0.0900
     55 H55        -2.6483    5.4262   50.5370 H       1  ZINC001082278299    0.1000
@<TRIPOS>BOND
     1     1     2    1
     2     1    27    1
     3     1    28    1
     4     1    29    1
     5     2     3    2
     6     2    24    1
     7     3     4    1
     8     3    30    1
     9     4     5    2
    10     4     6   am
    11     6     7    1
    12     6    31    1
    13     7     8    1
    14     7    32    1
    15     7    33    1
    16     8     9    1
    17     8    14    1
    18     8    10    1
    19    10    11    1
    20    10    34    1
    21    10    35    1
    22    11    12    1
    23    11    36    1
    24    11    37    1
    25    12    13    1
    26    12    38    1
    27    12    39    1
    28    13    14    1
    29    13    40    1
    30    13    41    1
    31    14    15   am
    32    15    16    2
    33    15    17    1
    34    17    18    1
    35    17    42    1
    36    17    43    1
    37    18    23    1
    38    18    19    2
    39    19    20    1
    40    19    44    1
    41    20    21    1
    42    20    45    1
    43    20    46    1
    44    21    22    1
    45    22    23    1
    46    22    47    1
    47    22    48    1
    48    23    49    1
    49    23    50    1
    50    24    26    1
    51    24    25    1
    52    24    51    1
    53    25    26    1
    54    25    52    1
    55    25    53    1
    56    26    54    1
    57    26    55    1
@<TRIPOS>SUBSTRUCTURE
     1 ZINC001082278299        1 TEMP              0 ****  ****    0 ROOT


##########                                Name:    ZINC000572257265
##########                DOCK_Rotatable_Bonds:                  11
##########                         Heavy_Atoms:                  24
##########                    Molecular_Weight:             393.509
##########                DOCK_Rotatable_Bonds:                  11
##########                       Formal_Charge:          -0.0100002
##########                     HBond_Acceptors:                  11
##########                        HBond_Donors:                   3
##########                         Heavy_Atoms:                  24
##########                          Grid_Score:          -32.883949
##########                     Grid_vdw_energy:          -28.919411
##########                      Grid_es_energy:           -3.964537
##########           Internal_energy_repulsive:           11.449147

@<TRIPOS>MOLECULE
ZINC000572257265
 43 43 1 0 0
SMALL
USER_CHARGES


@<TRIPOS>ATOM
      1 C1         -8.0485   -0.4761   52.6244 C.3     1  ZINC000572257265   -0.1300
      2 S2         -6.9488    0.4814   51.5453 S.3     1  ZINC000572257265   -0.2200
      3 C3         -7.4461    2.1949   51.8728 C.3     1  ZINC000572257265   -0.1300
      4 C4         -6.4668    2.8300   52.8620 C.3     1  ZINC000572257265    0.1500
      5 C5         -6.8230    4.3052   53.0563 C.3     1  ZINC000572257265   -0.1500
      6 O6         -6.5494    2.1508   54.1165 O.3     1  ZINC000572257265   -0.5400
      7 C7         -5.0429    2.7170   52.3136 C.3     1  ZINC000572257265    0.0900
      8 N8         -4.1327    3.4993   53.1536 N.am    1  ZINC000572257265   -1.1100
      9 S9         -3.1211    4.6141   52.4633 S.o2    1  ZINC000572257265    2.6900
     10 O10        -3.9421    5.4709   51.6814 O.2     1  ZINC000572257265   -0.9400
     11 O11        -2.2741    5.0851   53.5026 O.2     1  ZINC000572257265   -0.9500
     12 C12        -2.0854    3.7480   51.3313 C.ar    1  ZINC000572257265   -0.6300
     13 C13        -0.8150    3.3604   51.7142 C.ar    1  ZINC000572257265   -0.0400
     14 C14        -0.0024    2.6809   50.8261 C.ar    1  ZINC000572257265   -0.0400
     15 C15        -0.4604    2.3887   49.5549 C.ar    1  ZINC000572257265   -0.6300
     16 S16         0.5756    1.5231   48.4226 S.o2    1  ZINC000572257265    2.7000
     17 O17         0.0172    1.7265   47.1318 O.2     1  ZINC000572257265   -0.9400
     18 O18         1.9125    1.8718   48.7548 O.2     1  ZINC000572257265   -0.9400
     19 N19         0.4183   -0.0924   48.7508 N.am    1  ZINC000572257265   -1.1200
     20 C20        -0.8936   -0.7363   48.6483 C.3     1  ZINC000572257265    0.2200
     21 C21        -1.1324   -1.1440   47.2541 C.1     1  ZINC000572257265    0.1900
     22 N22        -1.3167   -1.4586   46.1782 N.1     1  ZINC000572257265   -0.3900
     23 C23        -1.7313    2.7752   49.1723 C.ar    1  ZINC000572257265   -0.0400
     24 C24        -2.5453    3.4513   50.0618 C.ar    1  ZINC000572257265   -0.0400
     25 H25        -9.0856   -0.2813   52.3512 H       1  ZINC000572257265    0.0800
     26 H26        -7.8358   -1.5389   52.5090 H       1  ZINC000572257265    0.1000
     27 H27        -7.8850   -0.1834   53.6616 H       1  ZINC000572257265    0.0800
     28 H28        -7.4388    2.7598   50.9407 H       1  ZINC000572257265    0.0900
     29 H29        -8.4501    2.2069   52.2972 H       1  ZINC000572257265    0.0900
     30 H30        -7.8373    4.3856   53.4470 H       1  ZINC000572257265    0.0800
     31 H31        -6.1252    4.7577   53.7610 H       1  ZINC000572257265    0.0700
     32 H32        -6.7600    4.8233   52.0994 H       1  ZINC000572257265    0.0800
     33 H33        -5.6903    1.9321   54.5028 H       1  ZINC000572257265    0.3800
     34 H34        -4.7337    1.6718   52.3182 H       1  ZINC000572257265    0.0900
     35 H35        -5.0151    3.0997   51.2934 H       1  ZINC000572257265    0.0800
     36 H36        -4.1224    3.3643   54.1141 H       1  ZINC000572257265    0.4300
     37 H37        -0.4572    3.5887   52.7074 H       1  ZINC000572257265    0.1500
     38 H38         0.9904    2.3787   51.1251 H       1  ZINC000572257265    0.1500
     39 H39         1.1948   -0.6122   49.0110 H       1  ZINC000572257265    0.4300
     40 H40        -0.9185   -1.6148   49.2930 H       1  ZINC000572257265    0.1100
     41 H41        -1.6678   -0.0351   48.9595 H       1  ZINC000572257265    0.1300
     42 H42        -2.0892    2.5465   48.1793 H       1  ZINC000572257265    0.1600
     43 H43        -3.5382    3.7532   49.7629 H       1  ZINC000572257265    0.1500
@<TRIPOS>BOND
     1     1     2    1
     2     1    25    1
     3     1    26    1
     4     1    27    1
     5     2     3    1
     6     3     4    1
     7     3    28    1
     8     3    29    1
     9     4     5    1
    10     4     6    1
    11     4     7    1
    12     5    30    1
    13     5    31    1
    14     5    32    1
    15     6    33    1
    16     7     8    1
    17     7    34    1
    18     7    35    1
    19     8     9   am
    20     8    36    1
    21     9    10    2
    22     9    11    2
    23     9    12    1
    24    12    24   ar
    25    12    13   ar
    26    13    14   ar
    27    13    37    1
    28    14    15   ar
    29    14    38    1
    30    15    16    1
    31    15    23   ar
    32    16    17    2
    33    16    18    2
    34    16    19   am
    35    19    20    1
    36    19    39    1
    37    20    21    1
    38    20    40    1
    39    20    41    1
    40    21    22    3
    41    23    24   ar
    42    23    42    1
    43    24    43    1
@<TRIPOS>SUBSTRUCTURE
     1 ZINC000572257265        1 TEMP              0 ****  ****    0 ROOT


##########                                Name:    ZINC001173835973
##########                DOCK_Rotatable_Bonds:                   4
##########                         Heavy_Atoms:                  26
##########                    Molecular_Weight:             343.388
##########                DOCK_Rotatable_Bonds:                   4
##########                       Formal_Charge:           -0.010001
##########                     HBond_Acceptors:                   6
##########                        HBond_Donors:                   4
##########                         Heavy_Atoms:                  26
##########                          Grid_Score:          -32.878437
##########                     Grid_vdw_energy:          -33.372234
##########                      Grid_es_energy:            0.493798
##########           Internal_energy_repulsive:            6.752151

@<TRIPOS>MOLECULE
ZINC001173835973
 43 46 1 0 0
SMALL
USER_CHARGES


@<TRIPOS>ATOM
      1 C1         -0.7753   -0.1410   42.8113 C.3     1  ZINC001173835973   -0.1700
      2 C2         -0.6416    0.2517   44.2601 C.2     1  ZINC001173835973    0.5100
      3 O3          0.1443    1.1169   44.5840 O.2     1  ZINC001173835973   -0.5200
      4 N4         -1.3955   -0.3584   45.1960 N.am    1  ZINC001173835973   -0.6800
      5 C5         -1.2714    0.0062   46.5412 C.ar    1  ZINC001173835973    0.1800
      6 C6         -0.8313   -0.9227   47.4756 C.ar    1  ZINC001173835973   -0.1900
      7 C7         -0.7084   -0.5638   48.8045 C.ar    1  ZINC001173835973   -0.0600
      8 C8         -1.0218    0.7192   49.2084 C.ar    1  ZINC001173835973   -0.1900
      9 C9         -1.4628    1.6538   48.2784 C.ar    1  ZINC001173835973    0.2200
     10 N10        -1.7797    2.9507   48.6871 N.pl3   1  ZINC001173835973   -0.6900
     11 C11        -2.0949    3.2049   50.0271 C.ar    1  ZINC001173835973    0.0400
     12 C12        -1.1472    3.7255   50.8582 C.ar    1  ZINC001173835973    0.2400
     13 N13         0.1330    4.0015   50.3648 N.pl3   1  ZINC001173835973   -0.8600
     14 C14        -1.4579    3.9973   52.2574 C.ar    1  ZINC001173835973   -0.1100
     15 C15        -0.4863    4.5339   53.1179 C.ar    1  ZINC001173835973   -0.0600
     16 C16        -0.8333    4.7690   54.4208 C.ar    1  ZINC001173835973   -0.1700
     17 C17        -2.1200    4.4759   54.8569 C.ar    1  ZINC001173835973    0.1200
     18 N18        -3.0231    3.9742   54.0455 N.ar    1  ZINC001173835973   -0.4400
     19 C19        -2.7460    3.7236   52.7679 C.ar    1  ZINC001173835973    0.1900
     20 C20        -3.7659    3.1633   51.8736 C.ar    1  ZINC001173835973    0.1300
     21 N21        -4.9903    2.8933   52.3206 N.ar    1  ZINC001173835973   -0.4400
     22 C22        -5.9128    2.3917   51.5312 C.ar    1  ZINC001173835973    0.1000
     23 C23        -5.6551    2.1193   50.1932 C.ar    1  ZINC001173835973   -0.1500
     24 C24        -4.4150    2.3751   49.6731 C.ar    1  ZINC001173835973   -0.0700
     25 C25        -3.4365    2.9164   50.5225 C.ar    1  ZINC001173835973   -0.0400
     26 C26        -1.5824    1.2976   46.9421 C.ar    1  ZINC001173835973   -0.1900
     27 H27        -0.0911    0.4562   42.2085 H       1  ZINC001173835973    0.1000
     28 H28        -0.5324   -1.1974   42.6973 H       1  ZINC001173835973    0.0900
     29 H29        -1.7989    0.0344   42.4803 H       1  ZINC001173835973    0.0900
     30 H30        -2.0241   -1.0502   44.9371 H       1  ZINC001173835973    0.4100
     31 H31        -0.5853   -1.9269   47.1632 H       1  ZINC001173835973    0.1200
     32 H32        -0.3666   -1.2884   49.5289 H       1  ZINC001173835973    0.1200
     33 H33        -0.9247    0.9965   50.2476 H       1  ZINC001173835973    0.1200
     34 H34        -1.7814    3.6757   48.0427 H       1  ZINC001173835973    0.4000
     35 H35         0.3206    3.8993   49.4186 H       1  ZINC001173835973    0.4100
     36 H36         0.8327    4.2953   50.9691 H       1  ZINC001173835973    0.4000
     37 H37         0.5088    4.7549   52.7609 H       1  ZINC001173835973    0.1400
     38 H38        -0.1092    5.1808   55.1083 H       1  ZINC001173835973    0.1400
     39 H39        -2.3835    4.6649   55.8870 H       1  ZINC001173835973    0.1700
     40 H40        -6.8945    2.1860   51.9318 H       1  ZINC001173835973    0.1600
     41 H41        -6.4309    1.7067   49.5653 H       1  ZINC001173835973    0.1400
     42 H42        -4.1960    2.1695   48.6357 H       1  ZINC001173835973    0.1400
     43 H43        -1.9243    2.0217   46.2175 H       1  ZINC001173835973    0.1400
@<TRIPOS>BOND
     1     1     2    1
     2     1    27    1
     3     1    28    1
     4     1    29    1
     5     2     3    2
     6     2     4   am
     7     4     5    1
     8     4    30    1
     9     5    26   ar
    10     5     6   ar
    11     6     7   ar
    12     6    31    1
    13     7     8   ar
    14     7    32    1
    15     8     9   ar
    16     8    33    1
    17     9    10    1
    18     9    26   ar
    19    10    11    1
    20    10    34    1
    21    11    25   ar
    22    11    12   ar
    23    12    13    1
    24    12    14   ar
    25    13    35    1
    26    13    36    1
    27    14    19   ar
    28    14    15   ar
    29    15    16   ar
    30    15    37    1
    31    16    17   ar
    32    16    38    1
    33    17    18   ar
    34    17    39    1
    35    18    19   ar
    36    19    20   ar
    37    20    25   ar
    38    20    21   ar
    39    21    22   ar
    40    22    23   ar
    41    22    40    1
    42    23    24   ar
    43    23    41    1
    44    24    25   ar
    45    24    42    1
    46    26    43    1
@<TRIPOS>SUBSTRUCTURE
     1 ZINC001173835973        1 TEMP              0 ****  ****    0 ROOT


##########                                Name:    ZINC000054627026
##########                DOCK_Rotatable_Bonds:                   5
##########                         Heavy_Atoms:                  28
##########                    Molecular_Weight:              370.37
##########                DOCK_Rotatable_Bonds:                   5
##########                       Formal_Charge:         6.85453e-07
##########                     HBond_Acceptors:                   8
##########                        HBond_Donors:                   2
##########                         Heavy_Atoms:                  28
##########                          Grid_Score:          -32.873291
##########                     Grid_vdw_energy:          -32.731503
##########                      Grid_es_energy:           -0.141788
##########           Internal_energy_repulsive:            4.219520

@<TRIPOS>MOLECULE
ZINC000054627026
 42 46 1 0 0
SMALL
USER_CHARGES


@<TRIPOS>ATOM
      1 O1         -2.3940    0.9844   49.9627 O.2     1  ZINC000054627026   -0.5200
      2 C2         -2.8215    1.6195   49.0180 C.2     1  ZINC000054627026    0.6100
      3 N3         -3.9517    2.3422   49.1479 N.am    1  ZINC000054627026   -0.6500
      4 C4         -4.6368    2.3572   50.3692 C.ar    1  ZINC000054627026    0.1400
      5 C5         -4.2456    3.2418   51.3720 C.ar    1  ZINC000054627026   -0.0900
      6 C6         -4.9118    3.2669   52.5787 C.ar    1  ZINC000054627026   -0.0900
      7 C7         -5.9784    2.4078   52.7993 C.ar    1  ZINC000054627026    0.0500
      8 N8         -6.8284    2.1930   53.8703 N.pl3   1  ZINC000054627026   -0.5900
      9 C9         -7.7007    1.2015   53.5020 C.2     1  ZINC000054627026    0.3700
     10 C10        -8.7760    0.6629   54.3478 C.2     1  ZINC000054627026    0.0200
     11 C11        -8.7017    0.4372   55.6901 C.2     1  ZINC000054627026   -0.1200
     12 C12        -9.9505   -0.0769   56.0837 C.2     1  ZINC000054627026   -0.2200
     13 C13       -10.7196   -0.1403   54.9770 C.2     1  ZINC000054627026   -0.0100
     14 O14       -10.0094    0.3116   53.9323 O.3     1  ZINC000054627026   -0.1700
     15 N15        -7.4306    0.8059   52.2786 N.2     1  ZINC000054627026   -0.4600
     16 C16        -6.3805    1.5113   51.7929 C.ar    1  ZINC000054627026    0.0700
     17 C17        -5.7009    1.4981   50.5708 C.ar    1  ZINC000054627026   -0.0900
     18 C18        -2.0999    1.6038   47.7317 C.2     1  ZINC000054627026   -0.1000
     19 C19        -0.8293    1.1421   47.5344 C.2     1  ZINC000054627026    0.1000
     20 N20        -0.5532    1.3076   46.2224 N.pl3   1  ZINC000054627026   -0.3100
     21 C21         0.6415    0.9708   45.5702 C.ar    1  ZINC000054627026    0.1300
     22 C22         0.7860    1.2183   44.2118 C.ar    1  ZINC000054627026   -0.1200
     23 C23         1.9641    0.8859   43.5721 C.ar    1  ZINC000054627026   -0.1000
     24 C24         2.9991    0.3069   44.2833 C.ar    1  ZINC000054627026   -0.1100
     25 C25         2.8580    0.0588   45.6364 C.ar    1  ZINC000054627026   -0.1000
     26 C26         1.6845    0.3947   46.2826 C.ar    1  ZINC000054627026   -0.1000
     27 N27        -1.6919    1.8805   45.6384 N.2     1  ZINC000054627026   -0.0500
     28 N28        -2.5836    2.0358   46.5541 N.2     1  ZINC000054627026   -0.2000
     29 H29        -4.2905    2.8521   48.3954 H       1  ZINC000054627026    0.4200
     30 H30        -3.4154    3.9114   51.2031 H       1  ZINC000054627026    0.1500
     31 H31        -4.6032    3.9549   53.3520 H       1  ZINC000054627026    0.1300
     32 H32        -6.8100    2.6566   54.7221 H       1  ZINC000054627026    0.4300
     33 H33        -7.8489    0.6175   56.3278 H       1  ZINC000054627026    0.1600
     34 H34       -10.2390   -0.3665   57.0833 H       1  ZINC000054627026    0.1600
     35 H35       -11.7396   -0.4933   54.9390 H       1  ZINC000054627026    0.2100
     36 H36        -6.0042    0.8176   49.7888 H       1  ZINC000054627026    0.1400
     37 H37        -0.1719    0.7255   48.2832 H       1  ZINC000054627026    0.2100
     38 H38        -0.0222    1.6698   43.6556 H       1  ZINC000054627026    0.1400
     39 H39         2.0771    1.0782   42.5154 H       1  ZINC000054627026    0.1400
     40 H40         3.9193    0.0476   43.7810 H       1  ZINC000054627026    0.1400
     41 H41         3.6679   -0.3938   46.1891 H       1  ZINC000054627026    0.1400
     42 H42         1.5748    0.2006   47.3395 H       1  ZINC000054627026    0.1400
@<TRIPOS>BOND
     1     1     2    2
     2     2     3   am
     3     2    18    1
     4     3     4    1
     5     3    29    1
     6     4    17   ar
     7     4     5   ar
     8     5     6   ar
     9     5    30    1
    10     6     7   ar
    11     6    31    1
    12     7    16   ar
    13     7     8    1
    14     8     9    1
    15     8    32    1
    16     9    10    1
    17     9    15    2
    18    10    14    1
    19    10    11    2
    20    11    12    1
    21    11    33    1
    22    12    13    2
    23    12    34    1
    24    13    14    1
    25    13    35    1
    26    15    16    1
    27    16    17   ar
    28    17    36    1
    29    18    28    1
    30    18    19    2
    31    19    20    1
    32    19    37    1
    33    20    21    1
    34    20    27    1
    35    21    26   ar
    36    21    22   ar
    37    22    23   ar
    38    22    38    1
    39    23    24   ar
    40    23    39    1
    41    24    25   ar
    42    24    40    1
    43    25    26   ar
    44    25    41    1
    45    26    42    1
    46    27    28    2
@<TRIPOS>SUBSTRUCTURE
     1 ZINC000054627026        1 TEMP              0 ****  ****    0 ROOT


##########                                Name:    ZINC000751548479
##########                DOCK_Rotatable_Bonds:                   9
##########                         Heavy_Atoms:                  27
##########                    Molecular_Weight:             389.407
##########                DOCK_Rotatable_Bonds:                   9
##########                       Formal_Charge:           0.0199995
##########                     HBond_Acceptors:                   9
##########                        HBond_Donors:                   2
##########                         Heavy_Atoms:                  27
##########                          Grid_Score:          -32.861645
##########                     Grid_vdw_energy:          -31.102699
##########                      Grid_es_energy:           -1.758944
##########           Internal_energy_repulsive:            9.358953

@<TRIPOS>MOLECULE
ZINC000751548479
 43 44 1 0 0
SMALL
USER_CHARGES


@<TRIPOS>ATOM
      1 C1         -4.3657    2.5388   50.1994 C.3     1  ZINC000751548479   -0.1600
      2 C2         -5.8731    2.6112   49.9469 C.3     1  ZINC000751548479    0.0800
      3 O3         -6.5277    1.4928   50.6016 O.3     1  ZINC000751548479   -0.3600
      4 C4         -6.9888    1.6998   51.8498 C.2     1  ZINC000751548479    0.6500
      5 O5         -7.2623    2.8252   52.2175 O.2     1  ZINC000751548479   -0.5400
      6 N6         -7.1468    0.6588   52.6910 N.am    1  ZINC000751548479   -0.6500
      7 C7         -7.6249    0.8734   53.9854 C.ar    1  ZINC000751548479    0.2000
      8 C8         -6.8804    1.6204   54.8868 C.ar    1  ZINC000751548479   -0.1000
      9 C9         -7.3516    1.8334   56.1668 C.ar    1  ZINC000751548479   -0.1000
     10 C10        -8.5743    1.3021   56.5628 C.ar    1  ZINC000751548479    0.1300
     11 N11        -9.0432    1.5232   57.8625 N.am    1  ZINC000751548479   -1.0500
     12 S12        -8.7395    0.4124   59.0526 S.o2    1  ZINC000751548479    2.6800
     13 O13        -7.3341    0.2023   59.0561 O.2     1  ZINC000751548479   -0.9500
     14 O14        -9.4639    0.8422   60.1970 O.2     1  ZINC000751548479   -0.9400
     15 C15        -9.4688   -1.1090   58.5444 C.2     1  ZINC000751548479   -0.7500
     16 C16       -10.7818   -1.1926   58.3809 C.2     1  ZINC000751548479    0.0700
     17 C17       -11.3934   -2.4682   57.9529 C.ar    1  ZINC000751548479   -0.1100
     18 C18       -12.5413   -2.4628   57.1593 C.ar    1  ZINC000751548479   -0.0600
     19 C19       -13.1078   -3.6561   56.7623 C.ar    1  ZINC000751548479   -0.1600
     20 C20       -12.5395   -4.8588   57.1503 C.ar    1  ZINC000751548479    0.1200
     21 F21       -13.0985   -6.0248   56.7591 F       1  ZINC000751548479   -0.1300
     22 C22       -11.3993   -4.8697   57.9379 C.ar    1  ZINC000751548479   -0.1600
     23 C23       -10.8217   -3.6822   58.3361 C.ar    1  ZINC000751548479   -0.0500
     24 C24        -9.3291    0.5551   55.6740 C.ar    1  ZINC000751548479   -0.0600
     25 C25        -8.8617    0.3391   54.3759 C.ar    1  ZINC000751548479   -0.0300
     26 C26        -9.6368   -0.4318   53.4510 C.1     1  ZINC000751548479    0.2500
     27 N27       -10.2517   -1.0434   52.7172 N.1     1  ZINC000751548479   -0.4000
     28 H28        -3.9748    1.6036   49.7987 H       1  ZINC000751548479    0.0700
     29 H29        -3.8743    3.3784   49.7079 H       1  ZINC000751548479    0.0900
     30 H30        -4.1744    2.5829   51.2716 H       1  ZINC000751548479    0.0700
     31 H31        -6.2640    3.5465   50.3475 H       1  ZINC000751548479    0.0800
     32 H32        -6.0644    2.5672   48.8747 H       1  ZINC000751548479    0.0800
     33 H33        -6.9284   -0.2395   52.3974 H       1  ZINC000751548479    0.4200
     34 H34        -5.9298    2.0358   54.5865 H       1  ZINC000751548479    0.1600
     35 H35        -6.7675    2.4155   56.8643 H       1  ZINC000751548479    0.1700
     36 H36        -9.5464    2.3271   58.0664 H       1  ZINC000751548479    0.4300
     37 H37        -8.8463   -1.9732   58.3662 H       1  ZINC000751548479    0.1700
     38 H38       -11.4045   -0.3286   58.5604 H       1  ZINC000751548479    0.1500
     39 H39       -12.9855   -1.5260   56.8569 H       1  ZINC000751548479    0.1400
     40 H40       -13.9963   -3.6530   56.1482 H       1  ZINC000751548479    0.1400
     41 H41       -10.9601   -5.8098   58.2373 H       1  ZINC000751548479    0.1400
     42 H42        -9.9330   -3.6918   58.9496 H       1  ZINC000751548479    0.1400
     43 H43       -10.2784    0.1431   55.9830 H       1  ZINC000751548479    0.1500
@<TRIPOS>BOND
     1     1     2    1
     2     1    28    1
     3     1    29    1
     4     1    30    1
     5     2     3    1
     6     2    31    1
     7     2    32    1
     8     3     4    1
     9     4     5    2
    10     4     6   am
    11     6     7    1
    12     6    33    1
    13     7    25   ar
    14     7     8   ar
    15     8     9   ar
    16     8    34    1
    17     9    10   ar
    18     9    35    1
    19    10    11    1
    20    10    24   ar
    21    11    12   am
    22    11    36    1
    23    12    13    2
    24    12    14    2
    25    12    15    1
    26    15    16    2
    27    15    37    1
    28    16    17    1
    29    16    38    1
    30    17    23   ar
    31    17    18   ar
    32    18    19   ar
    33    18    39    1
    34    19    20   ar
    35    19    40    1
    36    20    21    1
    37    20    22   ar
    38    22    23   ar
    39    22    41    1
    40    23    42    1
    41    24    25   ar
    42    24    43    1
    43    25    26    1
    44    26    27    3
@<TRIPOS>SUBSTRUCTURE
     1 ZINC000751548479        1 TEMP              0 ****  ****    0 ROOT


##########                                Name:    ZINC000151991096
##########                DOCK_Rotatable_Bonds:                   8
##########                         Heavy_Atoms:                  27
##########                    Molecular_Weight:             364.444
##########                DOCK_Rotatable_Bonds:                   8
##########                       Formal_Charge:          -0.0200004
##########                     HBond_Acceptors:                   5
##########                        HBond_Donors:                   1
##########                         Heavy_Atoms:                  27
##########                          Grid_Score:          -32.794300
##########                     Grid_vdw_energy:          -31.720240
##########                      Grid_es_energy:           -1.074062
##########           Internal_energy_repulsive:           11.569672

@<TRIPOS>MOLECULE
ZINC000151991096
 51 53 1 0 0
SMALL
USER_CHARGES


@<TRIPOS>ATOM
      1 C1          0.4147    3.3232   45.7394 C.3     1  ZINC000151991096   -0.1500
      2 C2          0.2117    3.1226   47.2426 C.3     1  ZINC000151991096   -0.1300
      3 C3         -0.8091    2.0068   47.4749 C.3     1  ZINC000151991096    0.1400
      4 H4         -1.5044    1.9701   46.6362 H       1  ZINC000151991096    0.1000
      5 N5         -1.5489    2.2715   48.7113 N.am    1  ZINC000151991096   -0.7200
      6 C6         -2.8948    2.3374   48.6904 C.2     1  ZINC000151991096    0.5600
      7 O7         -3.4950    2.1789   47.6449 O.2     1  ZINC000151991096   -0.5300
      8 C8         -3.6402    2.6023   49.9366 C.ar    1  ZINC000151991096   -0.1700
      9 C9         -4.9772    2.2123   50.0494 C.ar    1  ZINC000151991096   -0.0500
     10 C10        -5.6690    2.4608   51.2139 C.ar    1  ZINC000151991096   -0.1600
     11 C11        -5.0391    3.0987   52.2761 C.ar    1  ZINC000151991096    0.1600
     12 O12        -5.7241    3.3415   53.4221 O.3     1  ZINC000151991096   -0.3000
     13 C13        -6.4610    2.2519   53.9807 C.3     1  ZINC000151991096    0.0900
     14 C14        -6.5571    2.4240   55.4747 C.ar    1  ZINC000151991096   -0.0500
     15 C15        -5.7228    3.3101   56.1236 C.ar    1  ZINC000151991096   -0.1000
     16 C16        -5.8098    3.4693   57.4955 C.ar    1  ZINC000151991096   -0.0900
     17 C17        -6.7325    2.7418   58.2256 C.ar    1  ZINC000151991096   -0.1200
     18 C18        -7.5732    1.8519   57.5893 C.ar    1  ZINC000151991096   -0.0700
     19 C19        -7.4951    1.6908   56.2048 C.ar    1  ZINC000151991096   -0.0200
     20 C20        -8.3647    0.7691   55.5376 C.1     1  ZINC000151991096    0.2400
     21 N21        -9.0545    0.0379   55.0085 N.1     1  ZINC000151991096   -0.4000
     22 C22        -3.7092    3.4883   52.1677 C.ar    1  ZINC000151991096   -0.2200
     23 C23        -3.0090    3.2386   51.0086 C.ar    1  ZINC000151991096   -0.0100
     24 C24        -0.0812    0.6662   47.5929 C.3     1  ZINC000151991096    0.0700
     25 H25         0.7606    0.6405   46.9011 H       1  ZINC000151991096    0.1000
     26 C26        -1.0555   -0.4884   47.2752 C.3     1  ZINC000151991096   -0.1500
     27 C27        -0.6427   -1.5640   48.3166 C.3     1  ZINC000151991096   -0.1600
     28 C28        -0.2411   -0.6716   49.5178 C.3     1  ZINC000151991096    0.0500
     29 O29         0.3864    0.4837   48.9344 O.3     1  ZINC000151991096   -0.3700
     30 H30        -0.5341    3.5969   45.2779 H       1  ZINC000151991096    0.0500
     31 H31         1.1420    4.1180   45.5739 H       1  ZINC000151991096    0.0500
     32 H32         0.7810    2.3975   45.2955 H       1  ZINC000151991096    0.0600
     33 H33         1.1605    2.8488   47.7040 H       1  ZINC000151991096    0.0700
     34 H34        -0.1545    4.0483   47.6865 H       1  ZINC000151991096    0.0700
     35 H35        -1.0700    2.3991   49.5452 H       1  ZINC000151991096    0.4000
     36 H36        -5.4675    1.7170   49.2245 H       1  ZINC000151991096    0.1300
     37 H37        -6.7026    2.1601   51.3018 H       1  ZINC000151991096    0.1400
     38 H38        -7.4629    2.2332   53.5519 H       1  ZINC000151991096    0.0800
     39 H39        -5.9515    1.3151   53.7549 H       1  ZINC000151991096    0.0800
     40 H40        -4.9997    3.8807   55.5597 H       1  ZINC000151991096    0.1400
     41 H41        -5.1540    4.1645   57.9985 H       1  ZINC000151991096    0.1400
     42 H42        -6.7945    2.8703   59.2962 H       1  ZINC000151991096    0.1400
     43 H43        -8.2929    1.2843   58.1606 H       1  ZINC000151991096    0.1400
     44 H44        -3.2233    3.9840   52.9951 H       1  ZINC000151991096    0.1300
     45 H45        -1.9756    3.5413   50.9252 H       1  ZINC000151991096    0.1400
     46 H46        -2.0889   -0.1771   47.4279 H       1  ZINC000151991096    0.0800
     47 H47        -0.9055   -0.8542   46.2594 H       1  ZINC000151991096    0.0900
     48 H48        -1.4842   -2.2088   48.5702 H       1  ZINC000151991096    0.0800
     49 H49         0.2054   -2.1496   47.9615 H       1  ZINC000151991096    0.0800
     50 H50        -1.1255   -0.3777   50.0831 H       1  ZINC000151991096    0.0600
     51 H51         0.4628   -1.1985   50.1621 H       1  ZINC000151991096    0.0900
@<TRIPOS>BOND
     1     1     2    1
     2     1    30    1
     3     1    31    1
     4     1    32    1
     5     2     3    1
     6     2    33    1
     7     2    34    1
     8     3     4    1
     9     3     5    1
    10     3    24    1
    11     5     6   am
    12     5    35    1
    13     6     7    2
    14     6     8    1
    15     8    23   ar
    16     8     9   ar
    17     9    10   ar
    18     9    36    1
    19    10    11   ar
    20    10    37    1
    21    11    12    1
    22    11    22   ar
    23    12    13    1
    24    13    14    1
    25    13    38    1
    26    13    39    1
    27    14    19   ar
    28    14    15   ar
    29    15    16   ar
    30    15    40    1
    31    16    17   ar
    32    16    41    1
    33    17    18   ar
    34    17    42    1
    35    18    19   ar
    36    18    43    1
    37    19    20    1
    38    20    21    3
    39    22    23   ar
    40    22    44    1
    41    23    45    1
    42    24    25    1
    43    24    29    1
    44    24    26    1
    45    26    27    1
    46    26    46    1
    47    26    47    1
    48    27    28    1
    49    27    48    1
    50    27    49    1
    51    28    29    1
    52    28    50    1
    53    28    51    1
@<TRIPOS>SUBSTRUCTURE
     1 ZINC000151991096        1 TEMP              0 ****  ****    0 ROOT


##########                                Name:    ZINC000587344575
##########                DOCK_Rotatable_Bonds:                   7
##########                         Heavy_Atoms:                  30
##########                    Molecular_Weight:             408.475
##########                DOCK_Rotatable_Bonds:                   7
##########                       Formal_Charge:          -0.0100002
##########                     HBond_Acceptors:                   7
##########                        HBond_Donors:                   2
##########                         Heavy_Atoms:                  30
##########                          Grid_Score:          -32.787857
##########                     Grid_vdw_energy:          -32.332878
##########                      Grid_es_energy:           -0.454979
##########           Internal_energy_repulsive:           13.711323

@<TRIPOS>MOLECULE
ZINC000587344575
 55 57 1 0 0
SMALL
USER_CHARGES


@<TRIPOS>ATOM
      1 C1          0.2138    0.5629   49.2067 C.3     1  ZINC000587344575   -0.1200
      2 C2         -0.8237    1.6022   49.5455 C.ar    1  ZINC000587344575    0.0000
      3 C3         -2.1532    1.2523   49.6126 C.ar    1  ZINC000587344575   -0.1600
      4 C4         -3.1117    2.2111   49.9258 C.ar    1  ZINC000587344575    0.1800
      5 N5         -4.4577    1.8531   49.9933 N.am    1  ZINC000587344575   -0.6700
      6 C6         -5.1321    1.9827   51.1530 C.2     1  ZINC000587344575    0.5200
      7 O7         -4.5683    2.4107   52.1377 O.2     1  ZINC000587344575   -0.5000
      8 C8         -6.5868    1.5958   51.2260 C.3     1  ZINC000587344575   -0.1200
      9 H9         -6.8904    1.0930   50.3079 H       1  ZINC000587344575    0.1100
     10 C10        -7.4630    2.8463   51.4678 C.3     1  ZINC000587344575   -0.1200
     11 C11        -8.5389    2.3298   52.4560 C.3     1  ZINC000587344575    0.0400
     12 N12        -7.7780    1.4034   53.3329 N.3     1  ZINC000587344575   -0.4800
     13 C13        -8.6324    0.5118   53.9782 C.ar    1  ZINC000587344575    0.0700
     14 C14        -9.4835   -0.2966   53.2323 C.ar    1  ZINC000587344575   -0.1200
     15 C15       -10.3299   -1.1788   53.8665 C.ar    1  ZINC000587344575   -0.0700
     16 C16       -10.3333   -1.2625   55.2615 C.ar    1  ZINC000587344575    0.0000
     17 C17       -11.2121   -2.1794   55.9231 C.1     1  ZINC000587344575    0.2500
     18 N18       -11.9092   -2.9066   56.4480 N.1     1  ZINC000587344575   -0.4000
     19 C19        -9.4765   -0.4491   56.0100 C.ar    1  ZINC000587344575   -0.1000
     20 C20        -8.6284    0.4279   55.3694 C.ar    1  ZINC000587344575    0.1300
     21 F21        -7.7996    1.2140   56.0907 F       1  ZINC000587344575   -0.1200
     22 C22        -6.8373    0.6852   52.4422 C.3     1  ZINC000587344575    0.0500
     23 C23        -2.7301    3.5260   50.1723 C.ar    1  ZINC000587344575   -0.1400
     24 C24        -1.4019    3.8828   50.1069 C.ar    1  ZINC000587344575   -0.0600
     25 C25        -0.4362    2.9212   49.7978 C.ar    1  ZINC000587344575   -0.1600
     26 C26         0.9886    3.2999   49.7273 C.2     1  ZINC000587344575    0.5600
     27 O27         1.3568    4.1338   48.9228 O.2     1  ZINC000587344575   -0.5300
     28 N28         1.8813    2.7214   50.5548 N.am    1  ZINC000587344575   -0.7200
     29 C29         3.2959    3.0961   50.4836 C.3     1  ZINC000587344575    0.1400
     30 C30         3.5738    4.2292   51.4734 C.3     1  ZINC000587344575   -0.1600
     31 C31         4.1625    1.8858   50.8374 C.3     1  ZINC000587344575   -0.1600
     32 H32         0.6552    0.1772   50.1256 H       1  ZINC000587344575    0.0800
     33 H33        -0.2557   -0.2538   48.6584 H       1  ZINC000587344575    0.0600
     34 H34         0.9921    1.0138   48.5910 H       1  ZINC000587344575    0.1000
     35 H35        -2.4528    0.2323   49.4214 H       1  ZINC000587344575    0.1300
     36 H36        -4.9086    1.5108   49.2057 H       1  ZINC000587344575    0.4100
     37 H37        -6.8769    3.6467   51.9195 H       1  ZINC000587344575    0.0900
     38 H38        -7.9225    3.1811   50.5378 H       1  ZINC000587344575    0.0900
     39 H39        -8.9557    3.1532   53.0358 H       1  ZINC000587344575    0.0900
     40 H40        -9.3258    1.7959   51.9232 H       1  ZINC000587344575    0.0600
     41 H41        -9.4809   -0.2321   52.1542 H       1  ZINC000587344575    0.1400
     42 H42       -10.9908   -1.8055   53.2860 H       1  ZINC000587344575    0.1400
     43 H43        -9.4766   -0.5113   57.0882 H       1  ZINC000587344575    0.1500
     44 H44        -7.2788   -0.2574   52.1184 H       1  ZINC000587344575    0.0600
     45 H45        -5.8996    0.4985   52.9656 H       1  ZINC000587344575    0.1100
     46 H46        -3.4766    4.2678   50.4148 H       1  ZINC000587344575    0.1400
     47 H47        -1.1063    4.9037   50.2983 H       1  ZINC000587344575    0.1300
     48 H48         1.5874    2.0570   51.1974 H       1  ZINC000587344575    0.4000
     49 H49         3.5330    3.4298   49.4734 H       1  ZINC000587344575    0.0900
     50 H50         3.3367    3.8954   52.4836 H       1  ZINC000587344575    0.0600
     51 H51         4.6262    4.5079   51.4204 H       1  ZINC000587344575    0.0700
     52 H52         2.9564    5.0914   51.2213 H       1  ZINC000587344575    0.0600
     53 H53         3.9254    1.5520   51.8477 H       1  ZINC000587344575    0.0600
     54 H54         3.9645    1.0786   50.1323 H       1  ZINC000587344575    0.0600
     55 H55         5.2149    2.1645   50.7844 H       1  ZINC000587344575    0.0700
@<TRIPOS>BOND
     1     1     2    1
     2     1    32    1
     3     1    33    1
     4     1    34    1
     5     2    25   ar
     6     2     3   ar
     7     3     4   ar
     8     3    35    1
     9     4     5    1
    10     4    23   ar
    11     5     6   am
    12     5    36    1
    13     6     7    2
    14     6     8    1
    15     8     9    1
    16     8    22    1
    17     8    10    1
    18    10    11    1
    19    10    37    1
    20    10    38    1
    21    11    12    1
    22    11    39    1
    23    11    40    1
    24    12    13    1
    25    12    22    1
    26    13    20   ar
    27    13    14   ar
    28    14    15   ar
    29    14    41    1
    30    15    16   ar
    31    15    42    1
    32    16    17    1
    33    16    19   ar
    34    17    18    3
    35    19    20   ar
    36    19    43    1
    37    20    21    1
    38    22    44    1
    39    22    45    1
    40    23    24   ar
    41    23    46    1
    42    24    25   ar
    43    24    47    1
    44    25    26    1
    45    26    27    2
    46    26    28   am
    47    28    29    1
    48    28    48    1
    49    29    30    1
    50    29    31    1
    51    29    49    1
    52    30    50    1
    53    30    51    1
    54    30    52    1
    55    31    53    1
    56    31    54    1
    57    31    55    1
@<TRIPOS>SUBSTRUCTURE
     1 ZINC000587344575        1 TEMP              0 ****  ****    0 ROOT


##########                                Name:    ZINC000458730620
##########                DOCK_Rotatable_Bonds:                   9
##########                         Heavy_Atoms:                  25
##########                    Molecular_Weight:              375.44
##########                DOCK_Rotatable_Bonds:                   9
##########                       Formal_Charge:        -1.86265e-07
##########                     HBond_Acceptors:                   9
##########                        HBond_Donors:                   3
##########                         Heavy_Atoms:                  25
##########                          Grid_Score:          -32.783516
##########                     Grid_vdw_energy:          -30.382063
##########                      Grid_es_energy:           -2.401452
##########           Internal_energy_repulsive:           44.467251

@<TRIPOS>MOLECULE
ZINC000458730620
 48 49 1 0 0
SMALL
USER_CHARGES


@<TRIPOS>ATOM
      1 C1          0.8227    3.3199   51.5935 C.3     1  ZINC000458730620   -0.1600
      2 C2          1.9536    2.5327   50.9283 C.3     1  ZINC000458730620    0.2000
      3 C3          3.1623    2.4863   51.8651 C.3     1  ZINC000458730620   -0.1600
      4 N4          1.4998    1.1681   50.6486 N.am    1  ZINC000458730620   -0.7400
      5 C5          0.5065    0.9565   49.7627 C.2     1  ZINC000458730620    0.7100
      6 O6         -0.0142    1.8983   49.1966 O.2     1  ZINC000458730620   -0.5800
      7 N7          0.0902   -0.2990   49.5042 N.am    1  ZINC000458730620   -0.7500
      8 C8         -0.9884   -0.5291   48.5399 C.3     1  ZINC000458730620    0.1300
      9 C9         -0.3879   -0.8291   47.1650 C.3     1  ZINC000458730620    0.1000
     10 N10        -1.4457   -0.7948   46.1521 N.am    1  ZINC000458730620   -1.1100
     11 S11        -1.5904    0.5158   45.1501 S.o2    1  ZINC000458730620    2.7000
     12 O12        -2.5922    0.1845   44.1983 O.2     1  ZINC000458730620   -0.9400
     13 O13        -1.6657    1.6581   45.9920 O.2     1  ZINC000458730620   -0.9400
     14 C14        -0.0798    0.6567   44.2541 C.ar    1  ZINC000458730620   -0.7300
     15 C15         0.9732    1.3774   44.7846 C.ar    1  ZINC000458730620    0.0400
     16 C16         2.1590    1.4883   44.0830 C.ar    1  ZINC000458730620   -0.1800
     17 C17         2.2930    0.8773   42.8479 C.ar    1  ZINC000458730620    0.1900
     18 F18         3.4523    0.9855   42.1626 F       1  ZINC000458730620   -0.1200
     19 C19         1.2388    0.1549   42.3155 C.ar    1  ZINC000458730620   -0.2100
     20 C20         0.0537    0.0402   43.0212 C.ar    1  ZINC000458730620    0.2200
     21 F21        -0.9758   -0.6643   42.5029 F       1  ZINC000458730620   -0.1100
     22 C22         2.3494    3.2171   49.6184 C.3     1  ZINC000458730620   -0.1100
     23 C23         3.6987    3.9513   49.6903 C.3     1  ZINC000458730620   -0.1400
     24 C24         3.9742    3.4199   48.2738 C.3     1  ZINC000458730620   -0.1400
     25 C25         3.0087    2.2690   48.6028 C.3     1  ZINC000458730620   -0.1400
     26 H26         1.1794    4.3155   51.8574 H       1  ZINC000458730620    0.0600
     27 H27        -0.0157    3.4058   50.9022 H       1  ZINC000458730620    0.0500
     28 H28         0.4987    2.7993   52.4945 H       1  ZINC000458730620    0.0800
     29 H29         2.8802    1.9989   52.7983 H       1  ZINC000458730620    0.0800
     30 H30         3.9679    1.9256   51.3913 H       1  ZINC000458730620    0.0500
     31 H31         3.4999    3.5017   52.0732 H       1  ZINC000458730620    0.0600
     32 H32         1.9144    0.4169   51.1010 H       1  ZINC000458730620    0.3900
     33 H33         0.5047   -1.0502   49.9567 H       1  ZINC000458730620    0.4000
     34 H34        -1.5921   -1.3763   48.8653 H       1  ZINC000458730620    0.0800
     35 H35        -1.6150    0.3605   48.4764 H       1  ZINC000458730620    0.0800
     36 H36         0.3673   -0.0800   46.9271 H       1  ZINC000458730620    0.0900
     37 H37         0.0718   -1.8173   47.1770 H       1  ZINC000458730620    0.0700
     38 H38        -2.0613   -1.5396   46.0682 H       1  ZINC000458730620    0.4300
     39 H39         0.8694    1.8547   45.7478 H       1  ZINC000458730620    0.1700
     40 H40         2.9812    2.0521   44.4983 H       1  ZINC000458730620    0.1600
     41 H41         1.3424   -0.3220   41.3521 H       1  ZINC000458730620    0.1600
     42 H42         1.5453    3.8191   49.1955 H       1  ZINC000458730620    0.1100
     43 H43         3.6036    5.0360   49.7388 H       1  ZINC000458730620    0.0700
     44 H44         4.3742    3.5504   50.4460 H       1  ZINC000458730620    0.0800
     45 H45         3.6150    4.0784   47.4829 H       1  ZINC000458730620    0.0800
     46 H46         5.0037    3.0960   48.1214 H       1  ZINC000458730620    0.0700
     47 H47         3.4955    1.4082   49.0612 H       1  ZINC000458730620    0.0800
     48 H48         2.3564    1.9957   47.7734 H       1  ZINC000458730620    0.0700
@<TRIPOS>BOND
     1     1     2    1
     2     1    26    1
     3     1    27    1
     4     1    28    1
     5     2     3    1
     6     2     4    1
     7     2    22    1
     8     3    29    1
     9     3    30    1
    10     3    31    1
    11     4     5   am
    12     4    32    1
    13     5     6    2
    14     5     7   am
    15     7     8    1
    16     7    33    1
    17     8     9    1
    18     8    34    1
    19     8    35    1
    20     9    10    1
    21     9    36    1
    22     9    37    1
    23    10    11   am
    24    10    38    1
    25    11    12    2
    26    11    13    2
    27    11    14    1
    28    14    20   ar
    29    14    15   ar
    30    15    16   ar
    31    15    39    1
    32    16    17   ar
    33    16    40    1
    34    17    18    1
    35    17    19   ar
    36    19    20   ar
    37    19    41    1
    38    20    21    1
    39    22    25    1
    40    22    23    1
    41    22    42    1
    42    23    24    1
    43    23    43    1
    44    23    44    1
    45    24    25    1
    46    24    45    1
    47    24    46    1
    48    25    47    1
    49    25    48    1
@<TRIPOS>SUBSTRUCTURE
     1 ZINC000458730620        1 TEMP              0 ****  ****    0 ROOT


##########                                Name:    ZINC000750807956
##########                DOCK_Rotatable_Bonds:                  11
##########                         Heavy_Atoms:                  26
##########                    Molecular_Weight:             368.473
##########                DOCK_Rotatable_Bonds:                  11
##########                       Formal_Charge:        -8.12113e-07
##########                     HBond_Acceptors:                   7
##########                        HBond_Donors:                   1
##########                         Heavy_Atoms:                  26
##########                          Grid_Score:          -32.765602
##########                     Grid_vdw_energy:          -31.741154
##########                      Grid_es_energy:           -1.024447
##########           Internal_energy_repulsive:           97.051521

@<TRIPOS>MOLECULE
ZINC000750807956
 58 59 1 0 0
SMALL
USER_CHARGES


@<TRIPOS>ATOM
      1 C1          0.0165   -0.2811   48.8404 C.3     1  ZINC000750807956   -0.1500
      2 C2         -1.5106   -0.3335   48.7610 C.3     1  ZINC000750807956    0.0700
      3 O3         -2.0726    0.7780   49.5073 O.3     1  ZINC000750807956   -0.3600
      4 C4         -2.2365    1.9349   48.8467 C.2     1  ZINC000750807956    0.4800
      5 O5         -2.7665    1.9406   47.7609 O.2     1  ZINC000750807956   -0.4900
      6 C6         -1.7594    3.2265   49.4590 C.3     1  ZINC000750807956    0.1600
      7 H7         -1.5934    3.9639   48.6736 H       1  ZINC000750807956    0.1000
      8 C8         -0.4519    2.9824   50.2189 C.3     1  ZINC000750807956   -0.1300
      9 C9         -0.0464    4.2627   50.9528 C.3     1  ZINC000750807956   -0.1200
     10 C10        -1.1308    4.6375   51.9654 C.3     1  ZINC000750807956   -0.1400
     11 C11        -2.4461    4.9004   51.2253 C.3     1  ZINC000750807956    0.1100
     12 N12        -2.7701    3.7283   50.4000 N.am    1  ZINC000750807956   -0.6100
     13 C13        -3.9691    3.1226   50.5082 C.2     1  ZINC000750807956    0.5100
     14 O14        -4.2244    2.1561   49.8214 O.2     1  ZINC000750807956   -0.5000
     15 C15        -4.9927    3.6462   51.4824 C.3     1  ZINC000750807956   -0.1400
     16 C16        -6.2430    2.7658   51.4308 C.3     1  ZINC000750807956    0.2100
     17 H17        -6.3688    2.3722   50.4222 H       1  ZINC000750807956    0.1000
     18 N18        -7.4171    3.5633   51.7938 N.am    1  ZINC000750807956   -0.7000
     19 C19        -8.1602    4.1451   50.8317 C.2     1  ZINC000750807956    0.6600
     20 O20        -7.8573    4.0069   49.6631 O.2     1  ZINC000750807956   -0.5600
     21 O21        -9.2383    4.8793   51.1653 O.3     1  ZINC000750807956   -0.3700
     22 C22        -9.9918    5.4763   50.0771 C.3     1  ZINC000750807956    0.1400
     23 C23        -9.0830    6.4173   49.2836 C.3     1  ZINC000750807956   -0.1800
     24 C24       -10.5148    4.3740   49.1540 C.3     1  ZINC000750807956   -0.1400
     25 C25       -11.1713    6.2667   50.6469 C.3     1  ZINC000750807956   -0.1800
     26 C26        -6.0904    1.6051   52.4159 C.3     1  ZINC000750807956   -0.1800
     27 C27        -7.0085    1.5919   53.6398 C.3     1  ZINC000750807956   -0.1700
     28 C28        -7.2369    0.5957   52.5013 C.3     1  ZINC000750807956   -0.1800
     29 H29         0.3286   -0.3484   49.8827 H       1  ZINC000750807956    0.0600
     30 H30         0.4383   -1.1154   48.2802 H       1  ZINC000750807956    0.0800
     31 H31         0.3704    0.6581   48.4151 H       1  ZINC000750807956    0.0700
     32 H32        -1.8226   -0.2662   47.7188 H       1  ZINC000750807956    0.0700
     33 H33        -1.8645   -1.2727   49.1863 H       1  ZINC000750807956    0.0600
     34 H34        -0.5955    2.1789   50.9414 H       1  ZINC000750807956    0.0800
     35 H35         0.3316    2.7031   49.5145 H       1  ZINC000750807956    0.0800
     36 H36         0.8967    4.0991   51.4744 H       1  ZINC000750807956    0.0800
     37 H37         0.0730    5.0719   50.2323 H       1  ZINC000750807956    0.0700
     38 H38        -1.2681    3.8185   52.6715 H       1  ZINC000750807956    0.0700
     39 H39        -0.8307    5.5363   52.5041 H       1  ZINC000750807956    0.0800
     40 H40        -3.2442    5.0706   51.9478 H       1  ZINC000750807956    0.0900
     41 H41        -2.3367    5.7761   50.5855 H       1  ZINC000750807956    0.0800
     42 H42        -4.5774    3.6290   52.4900 H       1  ZINC000750807956    0.1200
     43 H43        -5.2576    4.6695   51.2160 H       1  ZINC000750807956    0.1100
     44 H44        -7.6596    3.6726   52.7267 H       1  ZINC000750807956    0.4000
     45 H45        -8.2427    5.8543   48.8777 H       1  ZINC000750807956    0.0600
     46 H46        -9.6487    6.8655   48.4668 H       1  ZINC000750807956    0.0700
     47 H47        -8.7104    7.2027   49.9413 H       1  ZINC000750807956    0.0900
     48 H48       -11.1622    3.7035   49.7193 H       1  ZINC000750807956    0.0700
     49 H49       -11.0805    4.8220   48.3371 H       1  ZINC000750807956    0.0800
     50 H50        -9.6744    3.8108   48.7480 H       1  ZINC000750807956    0.0700
     51 H51       -10.7987    7.0521   51.3046 H       1  ZINC000750807956    0.0900
     52 H52       -11.7370    6.7148   49.8300 H       1  ZINC000750807956    0.0700
     53 H53       -11.8188    5.5963   51.2122 H       1  ZINC000750807956    0.0600
     54 H54        -5.0761    1.2268   52.5431 H       1  ZINC000750807956    0.1100
     55 H55        -6.5983    1.2049   54.5725 H       1  ZINC000750807956    0.0900
     56 H56        -7.7213    2.4102   53.7431 H       1  ZINC000750807956    0.0900
     57 H57        -8.1000    0.7585   51.8556 H       1  ZINC000750807956    0.1200
     58 H58        -6.9770   -0.4468   52.6850 H       1  ZINC000750807956    0.0900
@<TRIPOS>BOND
     1     1     2    1
     2     1    29    1
     3     1    30    1
     4     1    31    1
     5     2     3    1
     6     2    32    1
     7     2    33    1
     8     3     4    1
     9     4     5    2
    10     4     6    1
    11     6     7    1
    12     6    12    1
    13     6     8    1
    14     8     9    1
    15     8    34    1
    16     8    35    1
    17     9    10    1
    18     9    36    1
    19     9    37    1
    20    10    11    1
    21    10    38    1
    22    10    39    1
    23    11    12    1
    24    11    40    1
    25    11    41    1
    26    12    13   am
    27    13    14    2
    28    13    15    1
    29    15    16    1
    30    15    42    1
    31    15    43    1
    32    16    17    1
    33    16    18    1
    34    16    26    1
    35    18    19   am
    36    18    44    1
    37    19    20    2
    38    19    21    1
    39    21    22    1
    40    22    23    1
    41    22    24    1
    42    22    25    1
    43    23    45    1
    44    23    46    1
    45    23    47    1
    46    24    48    1
    47    24    49    1
    48    24    50    1
    49    25    51    1
    50    25    52    1
    51    25    53    1
    52    26    28    1
    53    26    27    1
    54    26    54    1
    55    27    28    1
    56    27    55    1
    57    27    56    1
    58    28    57    1
    59    28    58    1
@<TRIPOS>SUBSTRUCTURE
     1 ZINC000750807956        1 TEMP              0 ****  ****    0 ROOT


##########                                Name:    ZINC001596273020
##########                DOCK_Rotatable_Bonds:                  11
##########                         Heavy_Atoms:                  25
##########                    Molecular_Weight:             355.478
##########                DOCK_Rotatable_Bonds:                  11
##########                       Formal_Charge:          -0.0499996
##########                     HBond_Acceptors:                   7
##########                        HBond_Donors:                   2
##########                         Heavy_Atoms:                  25
##########                          Grid_Score:          -32.753021
##########                     Grid_vdw_energy:          -33.369476
##########                      Grid_es_energy:            0.616457
##########           Internal_energy_repulsive:           25.276436

@<TRIPOS>MOLECULE
ZINC001596273020
 58 59 1 0 0
SMALL
USER_CHARGES


@<TRIPOS>ATOM
      1 C1        -10.0196   -0.7468   56.2456 C.3     1  ZINC001596273020   -0.1900
      2 C2         -9.6166    0.4538   55.3871 C.3     1  ZINC001596273020   -0.0200
      3 N3         -8.7181    0.0086   54.3135 N.4     1  ZINC001596273020   -0.3900
      4 H4         -7.9010   -0.4246   54.7169 H       1  ZINC001596273020    0.4300
      5 C5         -9.4170   -0.9626   53.4614 C.3     1  ZINC001596273020   -0.0100
      6 C6        -10.7218   -0.3476   52.9514 C.3     1  ZINC001596273020   -0.1900
      7 C7         -8.3104    1.1653   53.5051 C.3     1  ZINC001596273020   -0.0100
      8 C8         -7.2733    0.7242   52.4702 C.3     1  ZINC001596273020    0.0300
      9 O9         -6.8790    1.8490   51.6819 O.3     1  ZINC001596273020   -0.3900
     10 C10        -5.8174    1.5732   50.7659 C.3     1  ZINC001596273020    0.0500
     11 C11        -5.5751    2.7984   49.8821 C.3     1  ZINC001596273020    0.1400
     12 N12        -4.4035    2.5650   49.0342 N.am    1  ZINC001596273020   -0.7500
     13 C13        -3.1684    2.8319   49.5030 C.2     1  ZINC001596273020    0.7200
     14 O14        -3.0267    3.2678   50.6292 O.2     1  ZINC001596273020   -0.6000
     15 N15        -2.0905    2.6157   48.7235 N.am    1  ZINC001596273020   -0.6300
     16 C16        -0.6634    2.8391   49.0632 C.3     1  ZINC001596273020    0.1100
     17 C17         0.0546    1.5986   48.4578 C.3     1  ZINC001596273020   -0.0800
     18 H18         1.0537    1.8784   48.1239 H       1  ZINC001596273020    0.1200
     19 C19         0.1545    0.5518   49.5494 C.3     1  ZINC001596273020   -0.1000
     20 C20         0.1450   -0.8707   49.0076 C.3     1  ZINC001596273020   -0.1200
     21 C21        -1.1573   -1.0714   48.2211 C.3     1  ZINC001596273020   -0.1200
     22 C22        -1.0779   -0.2047   46.9685 C.3     1  ZINC001596273020   -0.0800
     23 C23        -0.7987    1.2314   47.2638 C.3     1  ZINC001596273020   -0.1400
     24 C24        -0.0527    1.7582   46.0650 C.2     1  ZINC001596273020    0.5000
     25 O25        -0.0749    1.1411   45.0137 O.co2   1  ZINC001596273020   -0.6900
     26 O26         0.5732    2.8013   46.1465 O.co2   1  ZINC001596273020   -0.6900
     27 C27        -2.0629    2.0948   47.3350 C.3     1  ZINC001596273020    0.1600
     28 H28       -10.6276   -1.4298   55.6525 H       1  ZINC001596273020    0.0800
     29 H29        -9.1242   -1.2637   56.5905 H       1  ZINC001596273020    0.0800
     30 H30       -10.5942   -0.4021   57.1053 H       1  ZINC001596273020    0.1000
     31 H31       -10.5083    0.9044   54.9512 H       1  ZINC001596273020    0.1300
     32 H32        -9.1045    1.1889   56.0080 H       1  ZINC001596273020    0.1300
     33 H33        -8.7834   -1.2249   52.6142 H       1  ZINC001596273020    0.1300
     34 H34        -9.6398   -1.8593   54.0397 H       1  ZINC001596273020    0.1300
     35 H35       -11.3999   -0.1873   53.7896 H       1  ZINC001596273020    0.0800
     36 H36       -10.5094    0.6061   52.4683 H       1  ZINC001596273020    0.0800
     37 H37       -11.1856   -1.0235   52.2330 H       1  ZINC001596273020    0.1000
     38 H38        -9.1810    1.5767   52.9944 H       1  ZINC001596273020    0.1400
     39 H39        -7.8759    1.9265   54.1531 H       1  ZINC001596273020    0.1400
     40 H40        -6.4017    0.3150   52.9809 H       1  ZINC001596273020    0.1000
     41 H41        -7.7069   -0.0386   51.8236 H       1  ZINC001596273020    0.0700
     42 H42        -4.9090    1.3409   51.3218 H       1  ZINC001596273020    0.0700
     43 H43        -6.0886    0.7223   50.1410 H       1  ZINC001596273020    0.0700
     44 H44        -6.4491    2.9721   49.2545 H       1  ZINC001596273020    0.0900
     45 H45        -5.4003    3.6712   50.5112 H       1  ZINC001596273020    0.0700
     46 H46        -4.5166    2.2183   48.1354 H       1  ZINC001596273020    0.3900
     47 H47        -0.2984    3.7567   48.6018 H       1  ZINC001596273020    0.0700
     48 H48        -0.5271    2.8716   50.1442 H       1  ZINC001596273020    0.0600
     49 H49         1.0790    0.7102   50.1046 H       1  ZINC001596273020    0.0500
     50 H50        -0.6873    0.6737   50.2310 H       1  ZINC001596273020    0.0400
     51 H51         1.0001   -1.0193   48.3481 H       1  ZINC001596273020    0.0700
     52 H52         0.1891   -1.5799   49.8341 H       1  ZINC001596273020    0.0500
     53 H53        -1.2615   -2.1193   47.9397 H       1  ZINC001596273020    0.0600
     54 H54        -2.0078   -0.7646   48.8298 H       1  ZINC001596273020    0.0500
     55 H55        -0.2874   -0.5911   46.3251 H       1  ZINC001596273020    0.0600
     56 H56        -2.0255   -0.2742   46.4344 H       1  ZINC001596273020    0.0600
     57 H57        -2.9474    1.4903   47.1343 H       1  ZINC001596273020    0.0700
     58 H58        -1.9985    2.9218   46.6278 H       1  ZINC001596273020    0.0700
@<TRIPOS>BOND
     1     1     2    1
     2     1    28    1
     3     1    29    1
     4     1    30    1
     5     2     3    1
     6     2    31    1
     7     2    32    1
     8     3     4    1
     9     3     5    1
    10     3     7    1
    11     5     6    1
    12     5    33    1
    13     5    34    1
    14     6    35    1
    15     6    36    1
    16     6    37    1
    17     7     8    1
    18     7    38    1
    19     7    39    1
    20     8     9    1
    21     8    40    1
    22     8    41    1
    23     9    10    1
    24    10    11    1
    25    10    42    1
    26    10    43    1
    27    11    12    1
    28    11    44    1
    29    11    45    1
    30    12    13   am
    31    12    46    1
    32    13    14    2
    33    13    15   am
    34    15    27    1
    35    15    16    1
    36    16    17    1
    37    16    47    1
    38    16    48    1
    39    17    18    1
    40    17    23    1
    41    17    19    1
    42    19    20    1
    43    19    49    1
    44    19    50    1
    45    20    21    1
    46    20    51    1
    47    20    52    1
    48    21    22    1
    49    21    53    1
    50    21    54    1
    51    22    23    1
    52    22    55    1
    53    22    56    1
    54    23    24    1
    55    23    27    1
    56    24    25   ar
    57    24    26   ar
    58    27    57    1
    59    27    58    1
@<TRIPOS>SUBSTRUCTURE
     1 ZINC001596273020        1 TEMP              0 ****  ****    0 ROOT


##########                                Name:    ZINC000440379747
##########                DOCK_Rotatable_Bonds:                   8
##########                         Heavy_Atoms:                  27
##########                    Molecular_Weight:             394.452
##########                DOCK_Rotatable_Bonds:                   8
##########                       Formal_Charge:           0.0199995
##########                     HBond_Acceptors:                  10
##########                        HBond_Donors:                   3
##########                         Heavy_Atoms:                  27
##########                          Grid_Score:          -32.751549
##########                     Grid_vdw_energy:          -31.768957
##########                      Grid_es_energy:           -0.982593
##########           Internal_energy_repulsive:           22.888407

@<TRIPOS>MOLECULE
ZINC000440379747
 49 51 1 0 0
SMALL
USER_CHARGES


@<TRIPOS>ATOM
      1 C1         -9.1162    2.5357   56.2809 C.3     1  ZINC000440379747   -0.1800
      2 C2         -8.5773    2.0384   54.9643 C.2     1  ZINC000440379747    0.5200
      3 O3         -9.0046    1.0099   54.4838 O.2     1  ZINC000440379747   -0.5200
      4 N4         -7.6205    2.7363   54.3209 N.am    1  ZINC000440379747   -0.5500
      5 C5         -7.0277    3.9877   54.8002 C.3     1  ZINC000440379747    0.1100
      6 C6         -5.9986    4.3831   53.7288 C.3     1  ZINC000440379747   -0.0900
      7 C7         -6.0901    3.2884   52.6895 C.ar    1  ZINC000440379747   -0.1100
      8 C8         -5.4064    3.1083   51.5037 C.ar    1  ZINC000440379747   -0.0700
      9 C9         -5.6734    2.0021   50.7069 C.ar    1  ZINC000440379747    0.1200
     10 N10        -4.9816    1.8179   49.5058 N.am    1  ZINC000440379747   -0.6400
     11 C11        -3.6344    1.8567   49.4913 C.2     1  ZINC000440379747    0.5100
     12 O12        -3.0218    2.0517   50.5210 O.2     1  ZINC000440379747   -0.4900
     13 C13        -2.8955    1.6600   48.2086 C.2     1  ZINC000440379747    0.5200
     14 O14        -3.2677    2.2251   47.2011 O.2     1  ZINC000440379747   -0.5100
     15 N15        -1.8153    0.8549   48.1698 N.am    1  ZINC000440379747   -0.5800
     16 C16        -1.2569    0.1107   49.3134 C.3     1  ZINC000440379747    0.1000
     17 C17        -0.4909   -1.0763   48.6780 C.3     1  ZINC000440379747   -0.1300
     18 C18         0.1051   -0.4175   47.4059 C.3     1  ZINC000440379747   -0.1600
     19 C19        -1.0027    0.5684   46.9786 C.3     1  ZINC000440379747    0.1500
     20 H20        -1.6205    0.1177   46.2019 H       1  ZINC000440379747    0.1000
     21 C21        -0.3747    1.8628   46.4580 C.3     1  ZINC000440379747   -0.6500
     22 S22         0.4921    1.5303   44.8996 S.o2    1  ZINC000440379747    2.6200
     23 N23        -0.6071    0.6942   43.9858 N.am    1  ZINC000440379747   -1.2500
     24 O24         0.7020    2.7366   44.1785 O.2     1  ZINC000440379747   -0.9500
     25 O25         1.5516    0.6061   45.1058 O.2     1  ZINC000440379747   -0.9500
     26 C26        -6.6308    1.0795   51.1095 C.ar    1  ZINC000440379747   -0.1000
     27 C27        -7.3119    1.2612   52.2933 C.ar    1  ZINC000440379747   -0.1400
     28 C28        -7.0430    2.3687   53.1001 C.ar    1  ZINC000440379747    0.1400
     29 H29        -9.8763    1.8453   56.6464 H       1  ZINC000440379747    0.1000
     30 H30        -8.3042    2.5989   57.0052 H       1  ZINC000440379747    0.1000
     31 H31        -9.5579    3.5226   56.1431 H       1  ZINC000440379747    0.1000
     32 H32        -7.7935    4.7581   54.8914 H       1  ZINC000440379747    0.0900
     33 H33        -6.5337    3.8293   55.7587 H       1  ZINC000440379747    0.0900
     34 H34        -6.2579    5.3466   53.2899 H       1  ZINC000440379747    0.0900
     35 H35        -4.9972    4.4171   54.1580 H       1  ZINC000440379747    0.1000
     36 H36        -4.6633    3.8286   51.1950 H       1  ZINC000440379747    0.1400
     37 H37        -5.4711    1.6622   48.6830 H       1  ZINC000440379747    0.4200
     38 H38        -0.5737    0.7432   49.8803 H       1  ZINC000440379747    0.0800
     39 H39        -2.0580   -0.2549   49.9557 H       1  ZINC000440379747    0.1000
     40 H40         0.2986   -1.4314   49.3404 H       1  ZINC000440379747    0.1000
     41 H41        -1.1723   -1.8858   48.4161 H       1  ZINC000440379747    0.0800
     42 H42         1.0277    0.1124   47.6422 H       1  ZINC000440379747    0.1000
     43 H43         0.2752   -1.1630   46.6291 H       1  ZINC000440379747    0.1000
     44 H44        -1.1564    2.6032   46.2882 H       1  ZINC000440379747    0.1500
     45 H45         0.3335    2.2443   47.1935 H       1  ZINC000440379747    0.1400
     46 H46        -0.9591   -0.1518   44.3043 H       1  ZINC000440379747    0.4100
     47 H47        -0.8988    1.0502   43.1320 H       1  ZINC000440379747    0.4200
     48 H48        -6.8419    0.2183   50.4931 H       1  ZINC000440379747    0.1400
     49 H49        -8.0554    0.5408   52.6009 H       1  ZINC000440379747    0.1500
@<TRIPOS>BOND
     1     1     2    1
     2     1    29    1
     3     1    30    1
     4     1    31    1
     5     2     3    2
     6     2     4   am
     7     4    28    1
     8     4     5    1
     9     5     6    1
    10     5    32    1
    11     5    33    1
    12     6     7    1
    13     6    34    1
    14     6    35    1
    15     7    28   ar
    16     7     8   ar
    17     8     9   ar
    18     8    36    1
    19     9    10    1
    20     9    26   ar
    21    10    11   am
    22    10    37    1
    23    11    12    2
    24    11    13    1
    25    13    14    2
    26    13    15   am
    27    15    19    1
    28    15    16    1
    29    16    17    1
    30    16    38    1
    31    16    39    1
    32    17    18    1
    33    17    40    1
    34    17    41    1
    35    18    19    1
    36    18    42    1
    37    18    43    1
    38    19    20    1
    39    19    21    1
    40    21    22    1
    41    21    44    1
    42    21    45    1
    43    22    23   am
    44    22    24    2
    45    22    25    2
    46    23    46    1
    47    23    47    1
    48    26    27   ar
    49    26    48    1
    50    27    28   ar
    51    27    49    1
@<TRIPOS>SUBSTRUCTURE
     1 ZINC000440379747        1 TEMP              0 ****  ****    0 ROOT


##########                                Name:    ZINC000746432885
##########                DOCK_Rotatable_Bonds:                  11
##########                         Heavy_Atoms:                  31
##########                    Molecular_Weight:              419.44
##########                DOCK_Rotatable_Bonds:                  11
##########                       Formal_Charge:           0.0199995
##########                     HBond_Acceptors:                   9
##########                        HBond_Donors:                   2
##########                         Heavy_Atoms:                  31
##########                          Grid_Score:          -32.727757
##########                     Grid_vdw_energy:          -32.806625
##########                      Grid_es_energy:            0.078868
##########           Internal_energy_repulsive:           26.126717

@<TRIPOS>MOLECULE
ZINC000746432885
 52 54 1 0 0
SMALL
USER_CHARGES


@<TRIPOS>ATOM
      1 C1          3.7492    1.3123   51.3901 C.3     1  ZINC000746432885    0.0300
      2 O2          2.5547    0.7788   50.8152 O.3     1  ZINC000746432885   -0.3200
      3 C3          1.4388    1.5515   50.8832 C.ar    1  ZINC000746432885    0.1300
      4 C4          1.3847    2.6175   51.7694 C.ar    1  ZINC000746432885   -0.2000
      5 C5          0.2493    3.4013   51.8368 C.ar    1  ZINC000746432885   -0.0800
      6 C6         -0.8330    3.1241   51.0222 C.ar    1  ZINC000746432885   -0.1400
      7 C7         -0.7816    2.0622   50.1381 C.ar    1  ZINC000746432885   -0.0600
      8 C8         -1.9627    1.7630   49.2513 C.3     1  ZINC000746432885    0.2300
      9 N9         -3.0218    2.7441   49.5010 N.am    1  ZINC000746432885   -0.6900
     10 C10        -4.1866    2.3522   50.0542 C.2     1  ZINC000746432885    0.5200
     11 O11        -4.3577    1.1868   50.3469 O.2     1  ZINC000746432885   -0.5100
     12 C12        -5.2667    3.3518   50.3071 C.2     1  ZINC000746432885    0.5100
     13 O13        -4.9879    4.4488   50.7459 O.2     1  ZINC000746432885   -0.5100
     14 N14        -6.5511    3.0361   50.0481 N.am    1  ZINC000746432885   -0.6100
     15 C15        -7.5671    3.9770   50.2844 C.2     1  ZINC000746432885    0.0000
     16 C16        -8.8374    3.7017   50.6796 C.2     1  ZINC000746432885    0.0400
     17 N17        -9.4950    4.8778   50.7940 N.pl3   1  ZINC000746432885   -0.3800
     18 C18       -10.8932    5.0466   51.1973 C.3     1  ZINC000746432885    0.2500
     19 C19       -11.6141    3.7766   51.0123 C.1     1  ZINC000746432885    0.1900
     20 N20       -12.1703    2.7965   50.8694 N.1     1  ZINC000746432885   -0.3900
     21 N21        -8.6048    5.9061   50.4597 N.2     1  ZINC000746432885   -0.2800
     22 C22        -7.4496    5.3700   50.1601 C.2     1  ZINC000746432885    0.0700
     23 C23        -1.5385    1.8385   47.8071 C.ar    1  ZINC000746432885   -0.0500
     24 C24        -1.0195    3.0155   47.3003 C.ar    1  ZINC000746432885   -0.1500
     25 C25        -0.6289    3.0877   45.9759 C.ar    1  ZINC000746432885   -0.0700
     26 C26        -0.7566    1.9835   45.1557 C.ar    1  ZINC000746432885   -0.2000
     27 C27        -1.2771    0.8014   45.6618 C.ar    1  ZINC000746432885    0.1300
     28 O28        -1.4037   -0.2863   44.8570 O.3     1  ZINC000746432885   -0.3200
     29 C29        -1.1480   -0.0958   43.4640 C.3     1  ZINC000746432885    0.0300
     30 C30        -1.6633    0.7299   46.9924 C.ar    1  ZINC000746432885   -0.1300
     31 C31         0.3539    1.2791   50.0626 C.ar    1  ZINC000746432885   -0.1300
     32 H32         3.5885    1.5017   52.4515 H       1  ZINC000746432885    0.0600
     33 H33         4.5623    0.5967   51.2679 H       1  ZINC000746432885    0.1000
     34 H34         4.0081    2.2453   50.8896 H       1  ZINC000746432885    0.0600
     35 H35         2.2295    2.8340   52.4065 H       1  ZINC000746432885    0.1300
     36 H36         0.2067    4.2314   52.5265 H       1  ZINC000746432885    0.1300
     37 H37        -1.7200    3.7376   51.0767 H       1  ZINC000746432885    0.1200
     38 H38        -2.3360    0.7622   49.4685 H       1  ZINC000746432885    0.1200
     39 H39        -2.8847    3.6757   49.2682 H       1  ZINC000746432885    0.4200
     40 H40        -6.7740    2.1591   49.6986 H       1  ZINC000746432885    0.4200
     41 H41        -9.2479    2.7207   50.8682 H       1  ZINC000746432885    0.1900
     42 H42       -10.9360    5.3391   52.2464 H       1  ZINC000746432885    0.1300
     43 H43       -11.3571    5.8201   50.5853 H       1  ZINC000746432885    0.1500
     44 H44        -6.5609    5.9064   49.8621 H       1  ZINC000746432885    0.2100
     45 H45        -0.9193    3.8800   47.9398 H       1  ZINC000746432885    0.1200
     46 H46        -0.2241    4.0084   45.5822 H       1  ZINC000746432885    0.1300
     47 H47        -0.4517    2.0406   44.1212 H       1  ZINC000746432885    0.1300
     48 H48        -1.2841   -1.0403   42.9371 H       1  ZINC000746432885    0.1000
     49 H49        -1.8406    0.6455   43.0656 H       1  ZINC000746432885    0.0600
     50 H50        -0.1243    0.2526   43.3268 H       1  ZINC000746432885    0.0600
     51 H51        -2.0688   -0.1892   47.3889 H       1  ZINC000746432885    0.1400
     52 H52         0.3936    0.4498   49.3719 H       1  ZINC000746432885    0.1300
@<TRIPOS>BOND
     1     1     2    1
     2     1    32    1
     3     1    33    1
     4     1    34    1
     5     2     3    1
     6     3    31   ar
     7     3     4   ar
     8     4     5   ar
     9     4    35    1
    10     5     6   ar
    11     5    36    1
    12     6     7   ar
    13     6    37    1
    14     7     8    1
    15     7    31   ar
    16     8     9    1
    17     8    23    1
    18     8    38    1
    19     9    10   am
    20     9    39    1
    21    10    11    2
    22    10    12    1
    23    12    13    2
    24    12    14   am
    25    14    15    1
    26    14    40    1
    27    15    22    1
    28    15    16    2
    29    16    17    1
    30    16    41    1
    31    17    18    1
    32    17    21    1
    33    18    19    1
    34    18    42    1
    35    18    43    1
    36    19    20    3
    37    21    22    2
    38    22    44    1
    39    23    30   ar
    40    23    24   ar
    41    24    25   ar
    42    24    45    1
    43    25    26   ar
    44    25    46    1
    45    26    27   ar
    46    26    47    1
    47    27    28    1
    48    27    30   ar
    49    28    29    1
    50    29    48    1
    51    29    49    1
    52    29    50    1
    53    30    51    1
    54    31    52    1
@<TRIPOS>SUBSTRUCTURE
     1 ZINC000746432885        1 TEMP              0 ****  ****    0 ROOT


##########                                Name:    ZINC000817655807
##########                DOCK_Rotatable_Bonds:                   3
##########                         Heavy_Atoms:                  24
##########                    Molecular_Weight:             352.774
##########                DOCK_Rotatable_Bonds:                   3
##########                       Formal_Charge:         3.35276e-07
##########                     HBond_Acceptors:                   8
##########                        HBond_Donors:                   0
##########                         Heavy_Atoms:                  24
##########                          Grid_Score:          -32.719032
##########                     Grid_vdw_energy:          -32.107380
##########                      Grid_es_energy:           -0.611653
##########           Internal_energy_repulsive:            4.594967

@<TRIPOS>MOLECULE
ZINC000817655807
 41 44 1 0 0
SMALL
USER_CHARGES


@<TRIPOS>ATOM
      1 C1         -7.3096    2.1611   53.7528 C.3     1  ZINC000817655807    0.1100
      2 N2         -6.5620    2.5820   52.5652 N.am    1  ZINC000817655807   -0.6400
      3 C3         -5.1339    2.3184   52.3129 C.3     1  ZINC000817655807    0.1000
      4 C4         -4.8911    2.9716   50.9493 C.3     1  ZINC000817655807    0.0500
      5 C5         -3.6869    3.9098   50.8664 C.3     1  ZINC000817655807    0.1200
      6 N6         -2.9418    2.7325   50.3733 N.am    1  ZINC000817655807   -0.6500
      7 C7         -1.6413    2.3793   50.3555 C.2     1  ZINC000817655807    0.5500
      8 O8         -0.8050    3.1212   50.8256 O.2     1  ZINC000817655807   -0.5100
      9 C9         -1.2263    1.0625   49.7515 C.3     1  ZINC000817655807   -0.0900
     10 C10        -1.0920    1.2148   48.2582 C.ar    1  ZINC000817655807   -0.0600
     11 C11        -0.6972    2.4255   47.7211 C.ar    1  ZINC000817655807   -0.0900
     12 C12        -0.5749    2.5696   46.3507 C.ar    1  ZINC000817655807   -0.0300
     13 Cl13       -0.0794    4.0920   45.6795 Cl      1  ZINC000817655807   -0.0500
     14 C14        -0.8477    1.4981   45.5124 C.ar    1  ZINC000817655807    0.0600
     15 O15        -0.7308    1.6568   44.1654 O.3     1  ZINC000817655807   -0.2900
     16 C16        -0.6516    0.4615   43.3811 C.3     1  ZINC000817655807    0.0200
     17 C17        -1.7415   -0.5043   43.8655 C.3     1  ZINC000817655807    0.0200
     18 O18        -1.5085   -0.7853   45.2499 O.3     1  ZINC000817655807   -0.3000
     19 C19        -1.2409    0.2801   46.0536 C.ar    1  ZINC000817655807    0.0600
     20 C20        -1.3582    0.1417   47.4287 C.ar    1  ZINC000817655807   -0.0900
     21 C21        -4.1923    2.0969   49.9082 C.3     1  ZINC000817655807    0.1100
     22 O22        -6.1688    3.5304   50.5655 O.3     1  ZINC000817655807   -0.3000
     23 C23        -7.0664    3.2654   51.5267 C.2     1  ZINC000817655807    0.6400
     24 O24        -8.2276    3.6185   51.4657 O.2     1  ZINC000817655807   -0.5100
     25 H25        -8.3453    2.4895   53.6654 H       1  ZINC000817655807    0.0900
     26 H26        -7.2787    1.0747   53.8355 H       1  ZINC000817655807    0.0700
     27 H27        -6.8611    2.6060   54.6411 H       1  ZINC000817655807    0.0700
     28 H28        -4.5153    2.7861   53.0789 H       1  ZINC000817655807    0.1000
     29 H29        -4.9434    1.2462   52.2650 H       1  ZINC000817655807    0.1000
     30 H30        -3.7967    4.7027   50.1266 H       1  ZINC000817655807    0.1100
     31 H31        -3.3445    4.2734   51.8352 H       1  ZINC000817655807    0.1000
     32 H32        -0.2694    0.7549   50.1729 H       1  ZINC000817655807    0.1100
     33 H33        -1.9806    0.3074   49.9732 H       1  ZINC000817655807    0.1100
     34 H34        -0.4842    3.2605   48.3722 H       1  ZINC000817655807    0.1400
     35 H35        -0.8128    0.7004   42.3300 H       1  ZINC000817655807    0.1300
     36 H36         0.3289    0.0027   43.5083 H       1  ZINC000817655807    0.0800
     37 H37        -2.7217   -0.0432   43.7439 H       1  ZINC000817655807    0.0800
     38 H38        -1.6956   -1.4288   43.2900 H       1  ZINC000817655807    0.1300
     39 H39        -1.6617   -0.8047   47.8515 H       1  ZINC000817655807    0.1400
     40 H40        -4.2490    1.0293   50.1206 H       1  ZINC000817655807    0.1000
     41 H41        -4.4547    2.3426   48.8792 H       1  ZINC000817655807    0.1100
@<TRIPOS>BOND
     1     1     2    1
     2     1    25    1
     3     1    26    1
     4     1    27    1
     5     2    23   am
     6     2     3    1
     7     3     4    1
     8     3    28    1
     9     3    29    1
    10     4    21    1
    11     4     5    1
    12     4    22    1
    13     5     6    1
    14     5    30    1
    15     5    31    1
    16     6     7   am
    17     6    21    1
    18     7     8    2
    19     7     9    1
    20     9    10    1
    21     9    32    1
    22     9    33    1
    23    10    20   ar
    24    10    11   ar
    25    11    12   ar
    26    11    34    1
    27    12    13    1
    28    12    14   ar
    29    14    19   ar
    30    14    15    1
    31    15    16    1
    32    16    17    1
    33    16    35    1
    34    16    36    1
    35    17    18    1
    36    17    37    1
    37    17    38    1
    38    18    19    1
    39    19    20   ar
    40    20    39    1
    41    21    40    1
    42    21    41    1
    43    22    23    1
    44    23    24    2
@<TRIPOS>SUBSTRUCTURE
     1 ZINC000817655807        1 TEMP              0 ****  ****    0 ROOT


##########                                Name:    ZINC000089894387
##########                DOCK_Rotatable_Bonds:                   8
##########                         Heavy_Atoms:                  22
##########                    Molecular_Weight:             326.823
##########                DOCK_Rotatable_Bonds:                   8
##########                       Formal_Charge:          -0.0300003
##########                     HBond_Acceptors:                   6
##########                        HBond_Donors:                   2
##########                         Heavy_Atoms:                  22
##########                          Grid_Score:          -32.707726
##########                     Grid_vdw_energy:          -32.056152
##########                      Grid_es_energy:           -0.651574
##########           Internal_energy_repulsive:           15.693734

@<TRIPOS>MOLECULE
ZINC000089894387
 45 46 1 0 0
SMALL
USER_CHARGES


@<TRIPOS>ATOM
      1 C1         -4.3803    4.5201   50.8192 C.3     1  ZINC000089894387   -0.1700
      2 C2         -4.7387    3.0869   50.4210 C.3     1  ZINC000089894387    0.1700
      3 H3         -5.0178    3.0614   49.3677 H       1  ZINC000089894387    0.0900
      4 N4         -3.5820    2.2152   50.6410 N.am    1  ZINC000089894387   -0.7400
      5 C5         -2.6778    2.0345   49.6581 C.2     1  ZINC000089894387    0.7100
      6 O6         -2.8228    2.5937   48.5883 O.2     1  ZINC000089894387   -0.5900
      7 N7         -1.6128    1.2338   49.8610 N.am    1  ZINC000089894387   -0.7500
      8 C8         -0.6290    1.0387   48.7932 C.3     1  ZINC000089894387    0.1400
      9 C9         -1.2706    0.2568   47.6452 C.3     1  ZINC000089894387    0.0500
     10 O10        -1.4412    1.1190   46.5184 O.3     1  ZINC000089894387   -0.3100
     11 C11        -0.5944    0.9398   45.4707 C.ar    1  ZINC000089894387    0.1400
     12 C12         0.7051    1.4206   45.5377 C.ar    1  ZINC000089894387   -0.2100
     13 C13         1.5646    1.2376   44.4715 C.ar    1  ZINC000089894387   -0.0700
     14 C14         1.1310    0.5758   43.3380 C.ar    1  ZINC000089894387   -0.1500
     15 C15        -0.1651    0.0952   43.2680 C.ar    1  ZINC000089894387    0.0000
     16 Cl16       -0.7066   -0.7356   41.8431 Cl      1  ZINC000089894387   -0.0600
     17 C17        -1.0266    0.2707   44.3348 C.ar    1  ZINC000089894387   -0.1500
     18 C18        -5.9134    2.5998   51.2717 C.3     1  ZINC000089894387   -0.1000
     19 C19        -6.2474    1.1512   50.9028 C.3     1  ZINC000089894387   -0.1600
     20 C20        -7.3708    0.6471   51.8125 C.3     1  ZINC000089894387    0.0600
     21 O21        -6.9642    0.7619   53.1777 O.3     1  ZINC000089894387   -0.3800
     22 C22        -6.6843    2.1004   53.5926 C.3     1  ZINC000089894387    0.0600
     23 C23        -5.5333    2.6629   52.7543 C.3     1  ZINC000089894387   -0.1500
     24 H24        -4.1013    4.5455   51.8726 H       1  ZINC000089894387    0.0600
     25 H25        -3.5435    4.8670   50.2132 H       1  ZINC000089894387    0.0600
     26 H26        -5.2409    5.1686   50.6555 H       1  ZINC000089894387    0.0700
     27 H27        -3.4670    1.7681   51.4941 H       1  ZINC000089894387    0.3900
     28 H28        -1.4978    0.7867   50.7141 H       1  ZINC000089894387    0.4000
     29 H29        -0.2918    2.0088   48.4282 H       1  ZINC000089894387    0.0800
     30 H30         0.2228    0.4804   49.1815 H       1  ZINC000089894387    0.0900
     31 H31        -0.6264   -0.5782   47.3695 H       1  ZINC000089894387    0.0900
     32 H32        -2.2419   -0.1229   47.9623 H       1  ZINC000089894387    0.0700
     33 H33         1.0446    1.9382   46.4226 H       1  ZINC000089894387    0.1300
     34 H34         2.5761    1.6123   44.5235 H       1  ZINC000089894387    0.1400
     35 H35         1.8044    0.4337   42.5057 H       1  ZINC000089894387    0.1400
     36 H36        -2.0378   -0.1047   44.2804 H       1  ZINC000089894387    0.1400
     37 H37        -6.7819    3.2331   51.0907 H       1  ZINC000089894387    0.0800
     38 H38        -6.5723    1.1057   49.8633 H       1  ZINC000089894387    0.0700
     39 H39        -5.3631    0.5281   51.0366 H       1  ZINC000089894387    0.0800
     40 H40        -8.2672    1.2451   51.6487 H       1  ZINC000089894387    0.0500
     41 H41        -7.5834   -0.3971   51.5831 H       1  ZINC000089894387    0.0900
     42 H42        -7.5718    2.7175   53.4520 H       1  ZINC000089894387    0.0500
     43 H43        -6.4025    2.1032   54.6454 H       1  ZINC000089894387    0.1000
     44 H44        -4.6346    2.0703   52.9254 H       1  ZINC000089894387    0.0800
     45 H45        -5.3476    3.6986   53.0390 H       1  ZINC000089894387    0.0800
@<TRIPOS>BOND
     1     1     2    1
     2     1    24    1
     3     1    25    1
     4     1    26    1
     5     2     3    1
     6     2     4    1
     7     2    18    1
     8     4     5   am
     9     4    27    1
    10     5     6    2
    11     5     7   am
    12     7     8    1
    13     7    28    1
    14     8     9    1
    15     8    29    1
    16     8    30    1
    17     9    10    1
    18     9    31    1
    19     9    32    1
    20    10    11    1
    21    11    17   ar
    22    11    12   ar
    23    12    13   ar
    24    12    33    1
    25    13    14   ar
    26    13    34    1
    27    14    15   ar
    28    14    35    1
    29    15    16    1
    30    15    17   ar
    31    17    36    1
    32    18    23    1
    33    18    19    1
    34    18    37    1
    35    19    20    1
    36    19    38    1
    37    19    39    1
    38    20    21    1
    39    20    40    1
    40    20    41    1
    41    21    22    1
    42    22    23    1
    43    22    42    1
    44    22    43    1
    45    23    44    1
    46    23    45    1
@<TRIPOS>SUBSTRUCTURE
     1 ZINC000089894387        1 TEMP              0 ****  ****    0 ROOT


##########                                Name:    ZINC000991934963
##########                DOCK_Rotatable_Bonds:                   8
##########                         Heavy_Atoms:                  27
##########                    Molecular_Weight:             370.495
##########                DOCK_Rotatable_Bonds:                   8
##########                       Formal_Charge:          -0.0499997
##########                     HBond_Acceptors:                   6
##########                        HBond_Donors:                   1
##########                         Heavy_Atoms:                  27
##########                          Grid_Score:          -32.695599
##########                     Grid_vdw_energy:          -31.539263
##########                      Grid_es_energy:           -1.156336
##########           Internal_energy_repulsive:           11.490945

@<TRIPOS>MOLECULE
ZINC000991934963
 57 61 1 0 0
SMALL
USER_CHARGES


@<TRIPOS>ATOM
      1 C1         -0.6186    1.1505   48.8197 C.3     1  ZINC000991934963    0.0400
      2 O2         -2.0252    0.9146   48.9096 O.3     1  ZINC000991934963   -0.2900
      3 C3         -2.7610    1.8325   49.5812 C.ar    1  ZINC000991934963    0.5000
      4 N4         -2.1493    2.8573   50.1523 N.ar    1  ZINC000991934963   -0.5700
      5 C5         -2.8376    3.7719   50.8159 C.ar    1  ZINC000991934963    0.1900
      6 C6         -4.2145    3.6461   50.9082 C.ar    1  ZINC000991934963   -0.2700
      7 C7         -4.8222    2.5600   50.2979 C.ar    1  ZINC000991934963    0.2200
      8 C8         -6.3167    2.3813   50.3714 C.3     1  ZINC000991934963    0.1000
      9 N9         -6.7488    2.4428   51.7742 N.3     1  ZINC000991934963   -0.4900
     10 C10        -6.8009    1.0746   52.3800 C.3     1  ZINC000991934963    0.0400
     11 C11        -8.2209    0.9222   53.0100 C.3     1  ZINC000991934963   -0.1400
     12 C12        -8.6039    2.3826   53.2403 C.3     1  ZINC000991934963    0.1700
     13 N13        -7.9361    2.9558   54.4115 N.am    1  ZINC000991934963   -0.7000
     14 C14        -8.2706    2.5394   55.6489 C.2     1  ZINC000991934963    0.5200
     15 O15        -9.1256    1.6913   55.7929 O.2     1  ZINC000991934963   -0.5300
     16 C16        -7.5825    3.1278   56.8536 C.3     1  ZINC000991934963   -0.1100
     17 C17        -8.2443    2.5992   58.1278 C.3     1  ZINC000991934963   -0.1300
     18 H18        -9.2992    2.8467   58.2471 H       1  ZINC000991934963    0.1200
     19 C19        -7.3871    2.5316   59.3933 C.3     1  ZINC000991934963   -0.1700
     20 C20        -7.7720    1.2446   58.6595 C.3     1  ZINC000991934963   -0.1200
     21 H21        -6.9895    0.7300   58.1019 H       1  ZINC000991934963    0.1000
     22 C22        -8.8159    0.3407   59.3187 C.3     1  ZINC000991934963   -0.1200
     23 C23        -8.5109   -1.1569   59.3879 C.3     1  ZINC000991934963   -0.1800
     24 C24        -8.4482   -0.3040   60.6565 C.3     1  ZINC000991934963   -0.1800
     25 C25       -10.0640    2.8075   53.1261 C.3     1  ZINC000991934963   -0.1200
     26 C26        -9.9466    4.2768   52.6136 C.3     1  ZINC000991934963   -0.1200
     27 C27        -8.5786    4.3616   51.8708 C.3     1  ZINC000991934963   -0.1000
     28 C28        -8.0709    2.9595   51.8785 C.3     1  ZINC000991934963    0.0500
     29 H29        -8.6551    2.4244   51.1298 H       1  ZINC000991934963    0.0400
     30 N30        -4.0745    1.6852   49.6455 N.ar    1  ZINC000991934963   -0.5000
     31 H31        -0.1922    1.1910   49.8221 H       1  ZINC000991934963    0.0600
     32 H32        -0.1499    0.3425   48.2579 H       1  ZINC000991934963    0.1100
     33 H33        -0.4408    2.0978   48.3106 H       1  ZINC000991934963    0.0600
     34 H34        -2.3326    4.6060   51.2803 H       1  ZINC000991934963    0.1700
     35 H35        -4.8011    4.3777   51.4440 H       1  ZINC000991934963    0.1500
     36 H36        -6.8058    3.1743   49.8055 H       1  ZINC000991934963    0.1000
     37 H37        -6.5882    1.4135   49.9498 H       1  ZINC000991934963    0.0600
     38 H38        -6.6509    0.3186   51.6092 H       1  ZINC000991934963    0.0600
     39 H39        -6.0373    0.9783   53.1519 H       1  ZINC000991934963    0.0800
     40 H40        -8.9087    0.4418   52.3142 H       1  ZINC000991934963    0.0800
     41 H41        -8.1749    0.3761   53.9523 H       1  ZINC000991934963    0.0900
     42 H42        -7.2532    3.6350   54.2964 H       1  ZINC000991934963    0.4000
     43 H43        -6.5303    2.8433   56.8459 H       1  ZINC000991934963    0.1000
     44 H44        -7.6654    4.2141   56.8250 H       1  ZINC000991934963    0.0900
     45 H45        -6.3517    2.8637   59.3181 H       1  ZINC000991934963    0.0900
     46 H46        -7.8781    2.7343   60.3452 H       1  ZINC000991934963    0.1000
     47 H47        -9.8545    0.6370   59.1712 H       1  ZINC000991934963    0.1000
     48 H48        -9.3490   -1.8464   59.2858 H       1  ZINC000991934963    0.0900
     49 H49        -7.5666   -1.4983   58.9638 H       1  ZINC000991934963    0.0900
     50 H50        -7.4628   -0.0844   61.0672 H       1  ZINC000991934963    0.0900
     51 H51        -9.2451   -0.4324   61.3892 H       1  ZINC000991934963    0.0900
     52 H52       -10.5929    2.1862   52.4034 H       1  ZINC000991934963    0.0800
     53 H53       -10.5543    2.7747   54.0991 H       1  ZINC000991934963    0.0800
     54 H54       -10.7620    4.5013   51.9260 H       1  ZINC000991934963    0.0700
     55 H55        -9.9613    4.9704   53.4543 H       1  ZINC000991934963    0.0700
     56 H56        -8.7210    4.7102   50.8479 H       1  ZINC000991934963    0.0700
     57 H57        -7.8936    5.0184   52.4068 H       1  ZINC000991934963    0.0700
@<TRIPOS>BOND
     1     1     2    1
     2     1    31    1
     3     1    32    1
     4     1    33    1
     5     2     3    1
     6     3    30   ar
     7     3     4   ar
     8     4     5   ar
     9     5     6   ar
    10     5    34    1
    11     6     7   ar
    12     6    35    1
    13     7     8    1
    14     7    30   ar
    15     8     9    1
    16     8    36    1
    17     8    37    1
    18     9    28    1
    19     9    10    1
    20    10    11    1
    21    10    38    1
    22    10    39    1
    23    11    12    1
    24    11    40    1
    25    11    41    1
    26    12    28    1
    27    12    13    1
    28    12    25    1
    29    13    14   am
    30    13    42    1
    31    14    15    2
    32    14    16    1
    33    16    17    1
    34    16    43    1
    35    16    44    1
    36    17    18    1
    37    17    20    1
    38    17    19    1
    39    19    20    1
    40    19    45    1
    41    19    46    1
    42    20    21    1
    43    20    22    1
    44    22    24    1
    45    22    23    1
    46    22    47    1
    47    23    24    1
    48    23    48    1
    49    23    49    1
    50    24    50    1
    51    24    51    1
    52    25    26    1
    53    25    52    1
    54    25    53    1
    55    26    27    1
    56    26    54    1
    57    26    55    1
    58    27    28    1
    59    27    56    1
    60    27    57    1
    61    28    29    1
@<TRIPOS>SUBSTRUCTURE
     1 ZINC000991934963        1 TEMP              0 ****  ****    0 ROOT


##########                                Name:    ZINC000484424341
##########                DOCK_Rotatable_Bonds:                   7
##########                         Heavy_Atoms:                  26
##########                    Molecular_Weight:             359.425
##########                DOCK_Rotatable_Bonds:                   7
##########                       Formal_Charge:          -0.0100009
##########                     HBond_Acceptors:                   7
##########                        HBond_Donors:                   1
##########                         Heavy_Atoms:                  26
##########                          Grid_Score:          -32.675175
##########                     Grid_vdw_energy:          -32.401802
##########                      Grid_es_energy:           -0.273371
##########           Internal_energy_repulsive:           15.341475

@<TRIPOS>MOLECULE
ZINC000484424341
 51 53 1 0 0
SMALL
USER_CHARGES


@<TRIPOS>ATOM
      1 C1         -1.5459    0.0078   43.9982 C.3     1  ZINC000484424341    0.0300
      2 O2         -0.3512    0.7911   44.0299 O.3     1  ZINC000484424341   -0.3800
      3 C3         -0.3943    1.8798   44.9547 C.3     1  ZINC000484424341    0.1300
      4 H4         -1.3374    2.4145   44.8425 H       1  ZINC000484424341    0.0700
      5 C5          0.7691    2.8331   44.6746 C.3     1  ZINC000484424341   -0.1700
      6 C6         -0.2818    1.3492   46.3606 C.ar    1  ZINC000484424341   -0.0700
      7 C7          0.7323    0.4679   46.6872 C.ar    1  ZINC000484424341   -0.1000
      8 C8          0.8393   -0.0215   47.9764 C.ar    1  ZINC000484424341   -0.1000
      9 C9         -0.0670    0.3689   48.9421 C.ar    1  ZINC000484424341   -0.1100
     10 C10        -1.0874    1.2545   48.6175 C.ar    1  ZINC000484424341    0.1400
     11 N11        -2.0059    1.6521   49.5924 N.am    1  ZINC000484424341   -0.6400
     12 C12        -1.9616    2.9040   50.0895 C.2     1  ZINC000484424341    0.5100
     13 O13        -1.1238    3.6863   49.6902 O.2     1  ZINC000484424341   -0.4900
     14 C14        -2.9435    3.3289   51.1316 C.2     1  ZINC000484424341    0.5200
     15 O15        -2.6000    4.0846   52.0170 O.2     1  ZINC000484424341   -0.5200
     16 N16        -4.2112    2.8732   51.0887 N.am    1  ZINC000484424341   -0.5800
     17 C17        -4.7589    1.9578   50.0770 C.3     1  ZINC000484424341    0.1100
     18 C18        -6.2339    1.6953   50.4472 C.3     1  ZINC000484424341   -0.1500
     19 C19        -6.2765    2.0282   51.9620 C.3     1  ZINC000484424341    0.1500
     20 H20        -5.9338    1.1821   52.5578 H       1  ZINC000484424341    0.1100
     21 N21        -7.6204    2.4444   52.3706 N.am    1  ZINC000484424341   -0.6100
     22 C22        -8.0284    3.8389   52.5778 C.3     1  ZINC000484424341    0.1000
     23 C23        -9.5730    3.8232   52.5613 C.3     1  ZINC000484424341   -0.1300
     24 C24        -9.8782    2.3710   52.9960 C.3     1  ZINC000484424341   -0.1600
     25 C25        -8.6399    1.5984   52.5984 C.2     1  ZINC000484424341    0.5200
     26 O26        -8.5744    0.3909   52.5059 O.2     1  ZINC000484424341   -0.5200
     27 C27        -5.2765    3.2049   52.0523 C.3     1  ZINC000484424341    0.0900
     28 C28        -1.1885    1.7484   47.3232 C.ar    1  ZINC000484424341   -0.1300
     29 H29        -2.3871    0.6394   43.7125 H       1  ZINC000484424341    0.0400
     30 H30        -1.4332   -0.7976   43.2723 H       1  ZINC000484424341    0.0900
     31 H31        -1.7287   -0.4161   44.9857 H       1  ZINC000484424341    0.0400
     32 H32         1.7122    2.2983   44.7868 H       1  ZINC000484424341    0.0700
     33 H33         0.6877    3.2168   43.6577 H       1  ZINC000484424341    0.0600
     34 H34         0.7362    3.6635   45.3801 H       1  ZINC000484424341    0.0700
     35 H35         1.4423    0.1605   45.9336 H       1  ZINC000484424341    0.1300
     36 H36         1.6324   -0.7101   48.2278 H       1  ZINC000484424341    0.1300
     37 H37         0.0169   -0.0138   49.9485 H       1  ZINC000484424341    0.1300
     38 H38        -2.6756    1.0270   49.9115 H       1  ZINC000484424341    0.4200
     39 H39        -4.7004    2.4178   49.0906 H       1  ZINC000484424341    0.0800
     40 H40        -4.2022    1.0206   50.0850 H       1  ZINC000484424341    0.0800
     41 H41        -6.8954    2.3571   49.8882 H       1  ZINC000484424341    0.0900
     42 H42        -6.4949    0.6512   50.2743 H       1  ZINC000484424341    0.0900
     43 H43        -7.6651    4.1992   53.5402 H       1  ZINC000484424341    0.0800
     44 H44        -7.6489    4.4667   51.7716 H       1  ZINC000484424341    0.0800
     45 H45        -9.9780    4.5381   53.2775 H       1  ZINC000484424341    0.0900
     46 H46        -9.9544    4.0188   51.5591 H       1  ZINC000484424341    0.0800
     47 H47       -10.0347    2.3203   54.0735 H       1  ZINC000484424341    0.1100
     48 H48       -10.7498    1.9890   52.4647 H       1  ZINC000484424341    0.1000
     49 H49        -4.8703    3.2811   53.0609 H       1  ZINC000484424341    0.0900
     50 H50        -5.7620    4.1381   51.7665 H       1  ZINC000484424341    0.0900
     51 H51        -1.9801    2.4371   47.0676 H       1  ZINC000484424341    0.1300
@<TRIPOS>BOND
     1     1     2    1
     2     1    29    1
     3     1    30    1
     4     1    31    1
     5     2     3    1
     6     3     4    1
     7     3     5    1
     8     3     6    1
     9     5    32    1
    10     5    33    1
    11     5    34    1
    12     6    28   ar
    13     6     7   ar
    14     7     8   ar
    15     7    35    1
    16     8     9   ar
    17     8    36    1
    18     9    10   ar
    19     9    37    1
    20    10    11    1
    21    10    28   ar
    22    11    12   am
    23    11    38    1
    24    12    13    2
    25    12    14    1
    26    14    15    2
    27    14    16   am
    28    16    27    1
    29    16    17    1
    30    17    18    1
    31    17    39    1
    32    17    40    1
    33    18    19    1
    34    18    41    1
    35    18    42    1
    36    19    20    1
    37    19    21    1
    38    19    27    1
    39    21    25   am
    40    21    22    1
    41    22    23    1
    42    22    43    1
    43    22    44    1
    44    23    24    1
    45    23    45    1
    46    23    46    1
    47    24    25    1
    48    24    47    1
    49    24    48    1
    50    25    26    2
    51    27    49    1
    52    27    50    1
    53    28    51    1
@<TRIPOS>SUBSTRUCTURE
     1 ZINC000484424341        1 TEMP              0 ****  ****    0 ROOT


##########                                Name:    ZINC000995593866
##########                DOCK_Rotatable_Bonds:                   7
##########                         Heavy_Atoms:                  24
##########                    Molecular_Weight:             342.389
##########                DOCK_Rotatable_Bonds:                   7
##########                       Formal_Charge:                0.03
##########                     HBond_Acceptors:                   8
##########                        HBond_Donors:                   1
##########                         Heavy_Atoms:                  24
##########                          Grid_Score:          -32.642628
##########                     Grid_vdw_energy:          -31.441133
##########                      Grid_es_energy:           -1.201492
##########           Internal_energy_repulsive:           10.401107

@<TRIPOS>MOLECULE
ZINC000995593866
 48 50 1 0 0
SMALL
USER_CHARGES


@<TRIPOS>ATOM
      1 C1         -7.8271    3.6493   51.7062 C.3     1  ZINC000995593866   -0.1400
      2 C2         -6.8211    2.6848   52.3378 C.3     1  ZINC000995593866   -0.0800
      3 C3         -5.5811    3.4459   52.8110 C.3     1  ZINC000995593866   -0.1400
      4 C4         -7.4707    1.9274   53.5159 C.3     1  ZINC000995593866    0.1200
      5 N5         -7.9448    0.6540   52.9256 N.am    1  ZINC000995593866   -0.6300
      6 C6         -9.0945    0.0000   53.1849 C.2     1  ZINC000995593866    0.5400
      7 O7         -9.3422   -1.0408   52.6136 O.2     1  ZINC000995593866   -0.5300
      8 C8        -10.0720    0.5621   54.1846 C.3     1  ZINC000995593866   -0.1300
      9 C9        -11.0629   -0.5282   54.5974 C.3     1  ZINC000995593866   -0.1000
     10 C10       -10.4544   -1.5953   55.5228 C.3     1  ZINC000995593866   -0.1300
     11 C11       -11.7804   -1.5639   56.3008 C.3     1  ZINC000995593866   -0.1400
     12 C12       -11.9614   -0.1285   55.7797 C.3     1  ZINC000995593866   -0.1400
     13 C13        -6.8687    0.2626   51.9858 C.3     1  ZINC000995593866    0.1100
     14 C14        -6.4242    1.5872   51.3289 C.3     1  ZINC000995593866    0.0800
     15 H15        -6.9458    1.7350   50.3833 H       1  ZINC000995593866    0.0700
     16 N16        -4.9708    1.5886   51.1149 N.3     1  ZINC000995593866   -0.6800
     17 C17        -4.6252    2.2557   49.8526 C.3     1  ZINC000995593866    0.1500
     18 C18        -3.1961    1.9409   49.4929 C.2     1  ZINC000995593866    0.1900
     19 N19        -2.5552    0.8249   49.7445 N.2     1  ZINC000995593866   -0.4300
     20 C20        -1.3183    0.9971   49.2449 C.2     1  ZINC000995593866    0.0900
     21 C21        -0.1941   -0.0058   49.2813 C.3     1  ZINC000995593866    0.3800
     22 F22        -0.7231   -1.3005   49.2509 F       1  ZINC000995593866   -0.1800
     23 F23         0.6367    0.1846   48.1720 F       1  ZINC000995593866   -0.1700
     24 N24        -1.2711    2.1870   48.7248 N.2     1  ZINC000995593866   -0.3400
     25 O25        -2.3414    2.7435   48.8516 O.3     1  ZINC000995593866    0.1000
     26 H26        -8.7202    3.0996   51.4092 H       1  ZINC000995593866    0.0600
     27 H27        -8.0973    4.4179   52.4302 H       1  ZINC000995593866    0.0600
     28 H28        -7.3802    4.1174   50.8291 H       1  ZINC000995593866    0.0600
     29 H29        -5.8742    4.1996   53.5419 H       1  ZINC000995593866    0.0700
     30 H30        -4.8797    2.7487   53.2694 H       1  ZINC000995593866    0.0700
     31 H31        -5.1058    3.9318   51.9588 H       1  ZINC000995593866    0.0600
     32 H32        -6.7341    1.7338   54.2957 H       1  ZINC000995593866    0.0800
     33 H33        -8.3097    2.4961   53.9170 H       1  ZINC000995593866    0.0900
     34 H34        -9.5314    0.9134   55.0635 H       1  ZINC000995593866    0.0900
     35 H35       -10.6139    1.3940   53.7348 H       1  ZINC000995593866    0.0900
     36 H36       -11.6121   -0.9431   53.7524 H       1  ZINC000995593866    0.1000
     37 H37       -10.2622   -2.5461   55.0255 H       1  ZINC000995593866    0.0700
     38 H38        -9.6011   -1.2380   56.0993 H       1  ZINC000995593866    0.0800
     39 H39       -12.5256   -2.2632   55.9219 H       1  ZINC000995593866    0.0800
     40 H40       -11.6538   -1.6232   57.3819 H       1  ZINC000995593866    0.0700
     41 H41       -11.5202    0.6298   56.4266 H       1  ZINC000995593866    0.0800
     42 H42       -12.9860    0.1049   55.4900 H       1  ZINC000995593866    0.0700
     43 H43        -6.0381   -0.1910   52.5266 H       1  ZINC000995593866    0.0900
     44 H44        -7.2535   -0.4248   51.2324 H       1  ZINC000995593866    0.0800
     45 H45        -4.4913    2.0159   51.8929 H       1  ZINC000995593866    0.3600
     46 H46        -5.2856    1.9009   49.0614 H       1  ZINC000995593866    0.1200
     47 H47        -4.7420    3.3333   49.9674 H       1  ZINC000995593866    0.0800
     48 H48         0.3838    0.1292   50.1955 H       1  ZINC000995593866    0.1500
@<TRIPOS>BOND
     1     1     2    1
     2     1    26    1
     3     1    27    1
     4     1    28    1
     5     2    14    1
     6     2     3    1
     7     2     4    1
     8     3    29    1
     9     3    30    1
    10     3    31    1
    11     4     5    1
    12     4    32    1
    13     4    33    1
    14     5     6   am
    15     5    13    1
    16     6     7    2
    17     6     8    1
    18     8     9    1
    19     8    34    1
    20     8    35    1
    21     9    12    1
    22     9    10    1
    23     9    36    1
    24    10    11    1
    25    10    37    1
    26    10    38    1
    27    11    12    1
    28    11    39    1
    29    11    40    1
    30    12    41    1
    31    12    42    1
    32    13    14    1
    33    13    43    1
    34    13    44    1
    35    14    15    1
    36    14    16    1
    37    16    17    1
    38    16    45    1
    39    17    18    1
    40    17    46    1
    41    17    47    1
    42    18    25    1
    43    18    19    2
    44    19    20    1
    45    20    21    1
    46    20    24    2
    47    21    22    1
    48    21    23    1
    49    21    48    1
    50    24    25    1
@<TRIPOS>SUBSTRUCTURE
     1 ZINC000995593866        1 TEMP              0 ****  ****    0 ROOT


##########                                Name:    ZINC000894043060
##########                DOCK_Rotatable_Bonds:                  11
##########                         Heavy_Atoms:                  26
##########                    Molecular_Weight:             396.812
##########                DOCK_Rotatable_Bonds:                  11
##########                       Formal_Charge:          -0.0199999
##########                     HBond_Acceptors:                   9
##########                        HBond_Donors:                   2
##########                         Heavy_Atoms:                  26
##########                          Grid_Score:          -32.632401
##########                     Grid_vdw_energy:          -30.424772
##########                      Grid_es_energy:           -2.207626
##########           Internal_energy_repulsive:           15.957735

@<TRIPOS>MOLECULE
ZINC000894043060
 47 47 1 0 0
SMALL
USER_CHARGES


@<TRIPOS>ATOM
      1 C1         -6.0507    2.5168   50.3002 C.3     1  ZINC000894043060   -0.1700
      2 C2         -4.7767    3.3641   50.2849 C.3     1  ZINC000894043060    0.1000
      3 H3         -4.7124    3.9065   49.3416 H       1  ZINC000894043060    0.1100
      4 N4         -3.6083    2.4919   50.4272 N.am    1  ZINC000894043060   -0.7300
      5 C5         -3.0160    1.9748   49.3326 C.2     1  ZINC000894043060    0.5200
      6 O6         -3.4512    2.2303   48.2298 O.2     1  ZINC000894043060   -0.5200
      7 C7         -1.8131    1.0790   49.4790 C.3     1  ZINC000894043060   -0.1400
      8 C8         -0.7087    1.5490   48.5302 C.3     1  ZINC000894043060   -0.0200
      9 C9          0.6480    1.0671   49.0480 C.3     1  ZINC000894043060   -0.1400
     10 C10         1.3747    2.2164   49.6977 C.2     1  ZINC000894043060    0.5200
     11 O11         1.2716    3.3351   49.2407 O.2     1  ZINC000894043060   -0.5200
     12 N12         2.1393    2.0010   50.7865 N.am    1  ZINC000894043060   -0.7300
     13 C13         2.8445    3.1185   51.4191 C.3     1  ZINC000894043060    0.1000
     14 H14         3.2898    3.7493   50.6498 H       1  ZINC000894043060    0.1200
     15 C15         1.8556    3.9432   52.2456 C.3     1  ZINC000894043060   -0.1700
     16 C16         3.9447    2.5754   52.3332 C.3     1  ZINC000894043060    0.2600
     17 F17         4.8488    1.8213   51.5775 F       1  ZINC000894043060   -0.1900
     18 F18         4.6180    3.6425   52.9373 F       1  ZINC000894043060   -0.2000
     19 C19        -0.9522    0.9814   47.1555 C.ar    1  ZINC000894043060   -0.0600
     20 C20        -1.1167    1.8302   46.0768 C.ar    1  ZINC000894043060   -0.1200
     21 C21        -1.3401    1.3102   44.8158 C.ar    1  ZINC000894043060   -0.1200
     22 C22        -1.3990   -0.0601   44.6333 C.ar    1  ZINC000894043060   -0.0400
     23 Cl23       -1.6790   -0.7139   43.0497 Cl      1  ZINC000894043060   -0.0800
     24 C24        -1.2342   -0.9089   45.7134 C.ar    1  ZINC000894043060   -0.1100
     25 C25        -1.0053   -0.3879   46.9729 C.ar    1  ZINC000894043060   -0.0400
     26 C26        -4.8133    4.3611   51.4449 C.3     1  ZINC000894043060    0.2600
     27 F27        -5.9616    5.1536   51.3426 F       1  ZINC000894043060   -0.2000
     28 F28        -4.8339    3.6645   52.6579 F       1  ZINC000894043060   -0.1900
     29 H29        -6.1149    1.9744   51.2434 H       1  ZINC000894043060    0.0600
     30 H30        -6.9199    3.1658   50.1942 H       1  ZINC000894043060    0.0800
     31 H31        -6.0246    1.8066   49.4737 H       1  ZINC000894043060    0.0800
     32 H32        -3.2610    2.2866   51.3094 H       1  ZINC000894043060    0.4000
     33 H33        -1.4516    1.1211   50.5064 H       1  ZINC000894043060    0.1000
     34 H34        -2.0911    0.0541   49.2333 H       1  ZINC000894043060    0.1000
     35 H35        -0.7123    2.6379   48.4795 H       1  ZINC000894043060    0.1000
     36 H36         0.4966    0.2731   49.7793 H       1  ZINC000894043060    0.1000
     37 H37         1.2402    0.6866   48.2159 H       1  ZINC000894043060    0.1000
     38 H38         2.2227    1.1060   51.1513 H       1  ZINC000894043060    0.4000
     39 H39         1.4104    3.3122   53.0149 H       1  ZINC000894043060    0.0700
     40 H40         2.3803    4.7746   52.7163 H       1  ZINC000894043060    0.0800
     41 H41         1.0718    4.3300   51.5945 H       1  ZINC000894043060    0.0700
     42 H42         3.4994    1.9445   53.1025 H       1  ZINC000894043060    0.1200
     43 H43        -1.0711    2.8996   46.2194 H       1  ZINC000894043060    0.1200
     44 H44        -1.4691    1.9733   43.9732 H       1  ZINC000894043060    0.1300
     45 H45        -1.2804   -1.9786   45.5715 H       1  ZINC000894043060    0.1300
     46 H46        -0.8763   -1.0504   47.8160 H       1  ZINC000894043060    0.1300
     47 H47        -3.9287    4.9966   51.4059 H       1  ZINC000894043060    0.1100
@<TRIPOS>BOND
     1     1     2    1
     2     1    29    1
     3     1    30    1
     4     1    31    1
     5     2     3    1
     6     2     4    1
     7     2    26    1
     8     4     5   am
     9     4    32    1
    10     5     6    2
    11     5     7    1
    12     7     8    1
    13     7    33    1
    14     7    34    1
    15     8     9    1
    16     8    19    1
    17     8    35    1
    18     9    10    1
    19     9    36    1
    20     9    37    1
    21    10    11    2
    22    10    12   am
    23    12    13    1
    24    12    38    1
    25    13    14    1
    26    13    15    1
    27    13    16    1
    28    15    39    1
    29    15    40    1
    30    15    41    1
    31    16    17    1
    32    16    18    1
    33    16    42    1
    34    19    25   ar
    35    19    20   ar
    36    20    21   ar
    37    20    43    1
    38    21    22   ar
    39    21    44    1
    40    22    23    1
    41    22    24   ar
    42    24    25   ar
    43    24    45    1
    44    25    46    1
    45    26    27    1
    46    26    28    1
    47    26    47    1
@<TRIPOS>SUBSTRUCTURE
     1 ZINC000894043060        1 TEMP              0 ****  ****    0 ROOT


##########                                Name:    ZINC001143596311
##########                DOCK_Rotatable_Bonds:                   9
##########                         Heavy_Atoms:                  21
##########                    Molecular_Weight:             335.811
##########                DOCK_Rotatable_Bonds:                   9
##########                       Formal_Charge:          0.00999959
##########                     HBond_Acceptors:                   9
##########                        HBond_Donors:                   3
##########                         Heavy_Atoms:                  21
##########                          Grid_Score:          -32.617302
##########                     Grid_vdw_energy:          -31.844000
##########                      Grid_es_energy:           -0.773300
##########           Internal_energy_repulsive:           12.295918

@<TRIPOS>MOLECULE
ZINC001143596311
 39 39 1 0 0
SMALL
USER_CHARGES


@<TRIPOS>ATOM
      1 C1         -0.6071   -1.3790   47.2864 C.3     1  ZINC001143596311    0.0400
      2 O2         -1.4921   -1.2548   46.1713 O.3     1  ZINC001143596311   -0.2600
      3 N3         -1.3150   -0.0209   45.4056 N.3     1  ZINC001143596311   -0.3700
      4 C4         -1.9453   -0.1271   44.0829 C.3     1  ZINC001143596311    0.0000
      5 C5         -1.8352    1.1369   46.1452 C.3     1  ZINC001143596311    0.0400
      6 C6         -0.7473    2.2078   46.2470 C.3     1  ZINC001143596311   -0.1300
      7 C7         -0.2930    2.3367   47.7023 C.3     1  ZINC001143596311    0.1200
      8 N8         -1.4491    2.6387   48.5499 N.am    1  ZINC001143596311   -0.7200
      9 C9         -1.2833    2.8246   49.8744 C.2     1  ZINC001143596311    0.5600
     10 O10        -0.1744    2.7432   50.3655 O.2     1  ZINC001143596311   -0.5200
     11 C11        -2.4498    3.1277   50.7297 C.ar    1  ZINC001143596311   -0.1500
     12 C12        -2.3343    4.0501   51.7711 C.ar    1  ZINC001143596311   -0.0200
     13 C13        -3.4264    4.3289   52.5659 C.ar    1  ZINC001143596311   -0.1300
     14 C14        -4.6357    3.6954   52.3328 C.ar    1  ZINC001143596311    0.0700
     15 Cl15       -6.0060    4.0514   53.3375 Cl      1  ZINC001143596311   -0.0200
     16 C16        -4.7564    2.7791   51.3008 C.ar    1  ZINC001143596311   -0.6800
     17 S17        -6.2993    1.9786   51.0117 S.o2    1  ZINC001143596311    2.7000
     18 N18        -6.5993    1.0061   52.3180 N.am    1  ZINC001143596311   -1.2500
     19 O19        -7.2900    2.9970   51.0336 O.2     1  ZINC001143596311   -0.9400
     20 O20        -6.1001    1.1117   49.9034 O.2     1  ZINC001143596311   -0.9500
     21 C21        -3.6734    2.4968   50.4957 C.ar    1  ZINC001143596311    0.0500
     22 H22         0.4246   -1.3638   46.9349 H       1  ZINC001143596311    0.0400
     23 H23        -0.7692   -0.5482   47.9732 H       1  ZINC001143596311    0.0500
     24 H24        -0.8016   -2.3196   47.8017 H       1  ZINC001143596311    0.0900
     25 H25        -3.0125   -0.3139   44.2029 H       1  ZINC001143596311    0.0400
     26 H26        -1.7986    0.8036   43.5349 H       1  ZINC001143596311    0.0900
     27 H27        -1.4923   -0.9498   43.5297 H       1  ZINC001143596311    0.0800
     28 H28        -2.6989    1.5451   45.6203 H       1  ZINC001143596311    0.0500
     29 H29        -2.1327    0.8247   47.1463 H       1  ZINC001143596311    0.0900
     30 H30         0.1017    1.9235   45.6252 H       1  ZINC001143596311    0.0800
     31 H31        -1.1447    3.1632   45.9044 H       1  ZINC001143596311    0.0800
     32 H32         0.1598    1.3995   48.0259 H       1  ZINC001143596311    0.0800
     33 H33         0.4380    3.1409   47.7848 H       1  ZINC001143596311    0.0800
     34 H34        -2.3339    2.7048   48.1578 H       1  ZINC001143596311    0.4000
     35 H35        -1.3917    4.5442   51.9543 H       1  ZINC001143596311    0.1500
     36 H36        -3.3384    5.0423   53.3719 H       1  ZINC001143596311    0.1600
     37 H37        -7.4106    0.4754   52.3514 H       1  ZINC001143596311    0.4200
     38 H38        -5.9637    0.9669   53.0497 H       1  ZINC001143596311    0.4200
     39 H39        -3.7686    1.7822   49.6915 H       1  ZINC001143596311    0.1700
@<TRIPOS>BOND
     1     1     2    1
     2     1    22    1
     3     1    23    1
     4     1    24    1
     5     2     3    1
     6     3     4    1
     7     3     5    1
     8     4    25    1
     9     4    26    1
    10     4    27    1
    11     5     6    1
    12     5    28    1
    13     5    29    1
    14     6     7    1
    15     6    30    1
    16     6    31    1
    17     7     8    1
    18     7    32    1
    19     7    33    1
    20     8     9   am
    21     8    34    1
    22     9    10    2
    23     9    11    1
    24    11    21   ar
    25    11    12   ar
    26    12    13   ar
    27    12    35    1
    28    13    14   ar
    29    13    36    1
    30    14    15    1
    31    14    16   ar
    32    16    17    1
    33    16    21   ar
    34    17    18   am
    35    17    19    2
    36    17    20    2
    37    18    37    1
    38    18    38    1
    39    21    39    1
@<TRIPOS>SUBSTRUCTURE
     1 ZINC001143596311        1 TEMP              0 ****  ****    0 ROOT


##########                                Name:    ZINC000269287897
##########                DOCK_Rotatable_Bonds:                   8
##########                         Heavy_Atoms:                  23
##########                    Molecular_Weight:             385.301
##########                DOCK_Rotatable_Bonds:                   8
##########                       Formal_Charge:           0.0300002
##########                     HBond_Acceptors:                   5
##########                        HBond_Donors:                   1
##########                         Heavy_Atoms:                  23
##########                          Grid_Score:          -32.588947
##########                     Grid_vdw_energy:          -30.394382
##########                      Grid_es_energy:           -2.194565
##########           Internal_energy_repulsive:            9.353216

@<TRIPOS>MOLECULE
ZINC000269287897
 48 49 1 0 0
SMALL
USER_CHARGES


@<TRIPOS>ATOM
      1 C1         -0.7604    0.0412   49.2568 C.3     1  ZINC000269287897    0.0300
      2 O2         -1.9150    0.6803   49.8049 O.3     1  ZINC000269287897   -0.3800
      3 C3         -2.3603    1.8150   49.0593 C.3     1  ZINC000269287897    0.0600
      4 C4         -3.5725    2.4383   49.7542 C.3     1  ZINC000269287897    0.0600
      5 O5         -4.5714    1.4371   49.9587 O.3     1  ZINC000269287897   -0.3800
      6 C6         -5.9106    1.9328   49.9063 C.3     1  ZINC000269287897    0.0700
      7 C7         -6.2048    2.7420   51.1710 C.3     1  ZINC000269287897   -0.1000
      8 H8         -5.3135    3.2692   51.5111 H       1  ZINC000269287897    0.1000
      9 C9         -7.3800    3.7284   50.9393 C.3     1  ZINC000269287897   -0.1200
     10 C10        -7.9608    3.9130   52.3571 C.3     1  ZINC000269287897    0.1000
     11 N11        -7.5550    2.7438   53.1507 N.am    1  ZINC000269287897   -0.6300
     12 C12        -7.8478    2.5363   54.4499 C.2     1  ZINC000269287897    0.7300
     13 O13        -8.5026    3.3563   55.0640 O.2     1  ZINC000269287897   -0.5600
     14 N14        -7.4148    1.4198   55.0682 N.am    1  ZINC000269287897   -0.6900
     15 C15        -7.7189    1.2042   56.4175 C.ar    1  ZINC000269287897    0.1800
     16 C16        -7.0340    1.8994   57.4046 C.ar    1  ZINC000269287897   -0.0600
     17 C17        -5.9615    2.8878   57.0250 C.3     1  ZINC000269287897   -0.1000
     18 C18        -7.3367    1.6849   58.7354 C.ar    1  ZINC000269287897   -0.0900
     19 C19        -8.3208    0.7789   59.0850 C.ar    1  ZINC000269287897   -0.0800
     20 C20        -8.6480    0.5476   60.5377 C.3     1  ZINC000269287897   -0.1100
     21 C21        -9.0057    0.0845   58.1044 C.ar    1  ZINC000269287897   -0.0900
     22 C22        -8.7112    0.2979   56.7715 C.ar    1  ZINC000269287897   -0.1000
     23 Br23       -9.6484   -0.6512   55.4311 Br      1  ZINC000269287897   -0.0500
     24 C24        -6.7747    1.8352   52.2902 C.3     1  ZINC000269287897    0.1400
     25 H25        -0.9814   -0.3042   48.2468 H       1  ZINC000269287897    0.0400
     26 H26         0.0668    0.7503   49.2254 H       1  ZINC000269287897    0.0400
     27 H27        -0.4861   -0.8099   49.8800 H       1  ZINC000269287897    0.0900
     28 H28        -1.5572    2.5497   49.0014 H       1  ZINC000269287897    0.0600
     29 H29        -2.6395    1.5019   48.0532 H       1  ZINC000269287897    0.0600
     30 H30        -3.2679    2.8496   50.7166 H       1  ZINC000269287897    0.0700
     31 H31        -3.9788    3.2349   49.1310 H       1  ZINC000269287897    0.0600
     32 H32        -6.0275    2.5717   49.0308 H       1  ZINC000269287897    0.0600
     33 H33        -6.6056    1.0957   49.8406 H       1  ZINC000269287897    0.0500
     34 H34        -7.0152    4.6770   50.5455 H       1  ZINC000269287897    0.0900
     35 H35        -8.1233    3.2926   50.2717 H       1  ZINC000269287897    0.0800
     36 H36        -7.5614    4.8224   52.8059 H       1  ZINC000269287897    0.0700
     37 H37        -9.0483    3.9681   52.3078 H       1  ZINC000269287897    0.0700
     38 H38        -6.8923    0.7656   54.5782 H       1  ZINC000269287897    0.4100
     39 H39        -6.3772    3.8954   57.0315 H       1  ZINC000269287897    0.0900
     40 H40        -5.1424    2.8280   57.7415 H       1  ZINC000269287897    0.0600
     41 H41        -5.5894    2.6547   56.0273 H       1  ZINC000269287897    0.0600
     42 H42        -6.8038    2.2255   59.5037 H       1  ZINC000269287897    0.1300
     43 H43        -9.4301    1.2402   60.8487 H       1  ZINC000269287897    0.0700
     44 H44        -8.9950   -0.4768   60.6734 H       1  ZINC000269287897    0.0700
     45 H45        -7.7558    0.7120   61.1418 H       1  ZINC000269287897    0.0700
     46 H46        -9.7738   -0.6227   58.3807 H       1  ZINC000269287897    0.1400
     47 H47        -7.4212    1.0682   51.8638 H       1  ZINC000269287897    0.0700
     48 H48        -5.9648    1.3772   52.8580 H       1  ZINC000269287897    0.0900
@<TRIPOS>BOND
     1     1     2    1
     2     1    25    1
     3     1    26    1
     4     1    27    1
     5     2     3    1
     6     3     4    1
     7     3    28    1
     8     3    29    1
     9     4     5    1
    10     4    30    1
    11     4    31    1
    12     5     6    1
    13     6     7    1
    14     6    32    1
    15     6    33    1
    16     7     8    1
    17     7    24    1
    18     7     9    1
    19     9    10    1
    20     9    34    1
    21     9    35    1
    22    10    11    1
    23    10    36    1
    24    10    37    1
    25    11    12   am
    26    11    24    1
    27    12    13    2
    28    12    14   am
    29    14    15    1
    30    14    38    1
    31    15    22   ar
    32    15    16   ar
    33    16    17    1
    34    16    18   ar
    35    17    39    1
    36    17    40    1
    37    17    41    1
    38    18    19   ar
    39    18    42    1
    40    19    20    1
    41    19    21   ar
    42    20    43    1
    43    20    44    1
    44    20    45    1
    45    21    22   ar
    46    21    46    1
    47    22    23    1
    48    24    47    1
    49    24    48    1
@<TRIPOS>SUBSTRUCTURE
     1 ZINC000269287897        1 TEMP              0 ****  ****    0 ROOT


##########                                Name:    ZINC000460163972
##########                DOCK_Rotatable_Bonds:                   7
##########                         Heavy_Atoms:                  28
##########                    Molecular_Weight:             408.469
##########                DOCK_Rotatable_Bonds:                   7
##########                       Formal_Charge:          -0.0100001
##########                     HBond_Acceptors:                   8
##########                        HBond_Donors:                   2
##########                         Heavy_Atoms:                  28
##########                          Grid_Score:          -32.576878
##########                     Grid_vdw_energy:          -34.145226
##########                      Grid_es_energy:            1.568347
##########           Internal_energy_repulsive:           48.007401

@<TRIPOS>MOLECULE
ZINC000460163972
 50 52 1 0 0
SMALL
USER_CHARGES


@<TRIPOS>ATOM
      1 C1          1.4078    2.9539   50.6744 C.3     1  ZINC000460163972   -0.1400
      2 C2         -0.0848    3.1606   50.6547 C.ar    1  ZINC000460163972    0.0100
      3 C3         -0.6481    4.1915   51.3839 C.ar    1  ZINC000460163972   -0.1300
      4 C4         -2.0159    4.3838   51.3679 C.ar    1  ZINC000460163972   -0.0600
      5 C5         -2.8252    3.5407   50.6182 C.ar    1  ZINC000460163972    0.1100
      6 N6         -4.2110    3.7330   50.5995 N.am    1  ZINC000460163972   -0.6700
      7 C7         -4.9696    3.2682   51.6119 C.2     1  ZINC000460163972    0.5200
      8 O8         -4.4510    2.6832   52.5393 O.2     1  ZINC000460163972   -0.5100
      9 C9         -6.4622    3.4752   51.5919 C.3     1  ZINC000460163972   -0.0700
     10 H10        -6.7334    4.2354   52.3244 H       1  ZINC000460163972    0.1200
     11 C11        -6.8948    3.9332   50.1975 C.3     1  ZINC000460163972   -0.1500
     12 C12        -7.1536    2.1802   51.9323 C.ar    1  ZINC000460163972   -0.0600
     13 C13        -8.3353    2.1963   52.6490 C.ar    1  ZINC000460163972   -0.0700
     14 C14        -8.9714    1.0095   52.9627 C.ar    1  ZINC000460163972   -0.1200
     15 C15        -8.4253   -0.1960   52.5587 C.ar    1  ZINC000460163972    0.0700
     16 F16        -9.0465   -1.3561   52.8644 F       1  ZINC000460163972   -0.1300
     17 C17        -7.2397   -0.2120   51.8392 C.ar    1  ZINC000460163972    0.0700
     18 F18        -6.7046   -1.3878   51.4437 F       1  ZINC000460163972   -0.1300
     19 C19        -6.6081    0.9777   51.5227 C.ar    1  ZINC000460163972   -0.1200
     20 C20        -2.2562    2.5063   49.8864 C.ar    1  ZINC000460163972    0.0000
     21 C21        -3.1309    1.5893   49.0709 C.3     1  ZINC000460163972   -0.1500
     22 C22        -0.8877    2.3224   49.9028 C.ar    1  ZINC000460163972   -0.6700
     23 S23        -0.1649    1.0109   48.9743 S.o2    1  ZINC000460163972    2.7000
     24 O24         1.1564    1.4255   48.6558 O.2     1  ZINC000460163972   -0.9500
     25 O25        -0.4545   -0.1877   49.6804 O.2     1  ZINC000460163972   -0.9500
     26 N26        -0.9845    0.9173   47.5383 N.am    1  ZINC000460163972   -1.0900
     27 C27        -1.0085    2.0683   46.6324 C.3     1  ZINC000460163972    0.0800
     28 C28        -0.7589    1.8029   45.1463 C.3     1  ZINC000460163972   -0.1800
     29 C29        -2.1649    2.1577   45.6345 C.3     1  ZINC000460163972   -0.1900
     30 H30         1.8548    3.4503   49.8131 H       1  ZINC000460163972    0.1000
     31 H31         1.8209    3.3747   51.5912 H       1  ZINC000460163972    0.0800
     32 H32         1.6273    1.8870   50.6332 H       1  ZINC000460163972    0.0700
     33 H33        -0.0180    4.8470   51.9668 H       1  ZINC000460163972    0.1400
     34 H34        -2.4553    5.1888   51.9382 H       1  ZINC000460163972    0.1600
     35 H35        -4.6259    4.2008   49.8580 H       1  ZINC000460163972    0.4100
     36 H36        -7.9743    4.0829   50.1831 H       1  ZINC000460163972    0.0800
     37 H37        -6.3947    4.8699   49.9513 H       1  ZINC000460163972    0.0700
     38 H38        -6.6236    3.1730   49.4650 H       1  ZINC000460163972    0.0700
     39 H39        -8.7620    3.1368   52.9646 H       1  ZINC000460163972    0.1400
     40 H40        -9.8944    1.0233   53.5233 H       1  ZINC000460163972    0.1500
     41 H41        -5.6849    0.9665   50.9622 H       1  ZINC000460163972    0.1500
     42 H42        -3.1468    1.9284   48.0351 H       1  ZINC000460163972    0.1000
     43 H43        -2.7345    0.5748   49.1151 H       1  ZINC000460163972    0.1000
     44 H44        -4.1441    1.6012   49.4727 H       1  ZINC000460163972    0.0700
     45 H45        -1.4486    0.1004   47.2972 H       1  ZINC000460163972    0.4200
     46 H46        -0.6290    3.0017   47.0478 H       1  ZINC000460163972    0.1300
     47 H47        -0.2150    2.5617   44.5839 H       1  ZINC000460163972    0.1100
     48 H48        -0.5768    0.7719   44.8428 H       1  ZINC000460163972    0.1000
     49 H49        -2.9077    1.3602   45.6521 H       1  ZINC000460163972    0.1000
     50 H50        -2.5459    3.1502   45.3933 H       1  ZINC000460163972    0.1000
@<TRIPOS>BOND
     1     1     2    1
     2     1    30    1
     3     1    31    1
     4     1    32    1
     5     2    22   ar
     6     2     3   ar
     7     3     4   ar
     8     3    33    1
     9     4     5   ar
    10     4    34    1
    11     5     6    1
    12     5    20   ar
    13     6     7   am
    14     6    35    1
    15     7     8    2
    16     7     9    1
    17     9    10    1
    18     9    11    1
    19     9    12    1
    20    11    36    1
    21    11    37    1
    22    11    38    1
    23    12    19   ar
    24    12    13   ar
    25    13    14   ar
    26    13    39    1
    27    14    15   ar
    28    14    40    1
    29    15    16    1
    30    15    17   ar
    31    17    18    1
    32    17    19   ar
    33    19    41    1
    34    20    21    1
    35    20    22   ar
    36    21    42    1
    37    21    43    1
    38    21    44    1
    39    22    23    1
    40    23    24    2
    41    23    25    2
    42    23    26   am
    43    26    27    1
    44    26    45    1
    45    27    29    1
    46    27    28    1
    47    27    46    1
    48    28    29    1
    49    28    47    1
    50    28    48    1
    51    29    49    1
    52    29    50    1
@<TRIPOS>SUBSTRUCTURE
     1 ZINC000460163972        1 TEMP              0 ****  ****    0 ROOT


##########                                Name:    ZINC000478980774
##########                DOCK_Rotatable_Bonds:                   4
##########                         Heavy_Atoms:                  26
##########                    Molecular_Weight:             401.818
##########                DOCK_Rotatable_Bonds:                   4
##########                       Formal_Charge:          -0.0100001
##########                     HBond_Acceptors:                   9
##########                        HBond_Donors:                   1
##########                         Heavy_Atoms:                  26
##########                          Grid_Score:          -32.566540
##########                     Grid_vdw_energy:          -31.161373
##########                      Grid_es_energy:           -1.405167
##########           Internal_energy_repulsive:            9.695228

@<TRIPOS>MOLECULE
ZINC000478980774
 40 42 1 0 0
SMALL
USER_CHARGES


@<TRIPOS>ATOM
      1 C1         -4.3615    3.1246   52.2924 C.3     1  ZINC000478980774   -0.1400
      2 C2         -4.5214    3.7001   50.8839 C.3     1  ZINC000478980774   -0.4600
      3 H3         -4.3869    4.7813   50.9156 H       1  ZINC000478980774    0.1500
      4 C4         -3.4869    3.0919   49.9724 C.2     1  ZINC000478980774    0.5400
      5 O5         -2.3484    3.5102   49.9825 O.2     1  ZINC000478980774   -0.5000
      6 N6         -3.8267    2.0830   49.1457 N.am    1  ZINC000478980774   -0.6600
      7 C7         -2.8651    1.5176   48.2983 C.ar    1  ZINC000478980774    0.1600
      8 C8         -1.9349    0.6205   48.8049 C.ar    1  ZINC000478980774   -0.1200
      9 C9         -0.9852    0.0622   47.9702 C.ar    1  ZINC000478980774   -0.0600
     10 C10        -0.9587    0.3960   46.6262 C.ar    1  ZINC000478980774    0.0100
     11 O11        -0.1389   -0.0066   45.6104 O.3     1  ZINC000478980774   -0.2900
     12 C12        -0.8326    0.3391   44.3970 C.3     1  ZINC000478980774    0.5700
     13 F13         0.0757    0.7157   43.4017 F       1  ZINC000478980774   -0.1100
     14 F14        -1.6224   -0.7300   43.9606 F       1  ZINC000478980774   -0.1500
     15 O15        -1.6557    1.4568   44.7797 O.3     1  ZINC000478980774   -0.2800
     16 C16        -1.8913    1.2960   46.1147 C.ar    1  ZINC000478980774    0.0500
     17 C17        -2.8458    1.8502   46.9503 C.ar    1  ZINC000478980774   -0.0900
     18 S18        -6.1799    3.3151   50.2580 S.o     1  ZINC000478980774    1.3000
     19 O19        -6.3437    1.9055   50.1862 O.2     1  ZINC000478980774   -0.7800
     20 C20        -7.2676    3.9854   51.5457 C.3     1  ZINC000478980774   -0.4300
     21 C21        -8.7054    3.7404   51.1663 C.ar    1  ZINC000478980774   -0.0600
     22 C22        -9.0742    3.7155   49.8348 C.ar    1  ZINC000478980774   -0.1100
     23 C23       -10.3933    3.4908   49.4865 C.ar    1  ZINC000478980774   -0.1100
     24 C24       -11.3439    3.2914   50.4699 C.ar    1  ZINC000478980774   -0.1100
     25 C25       -10.9762    3.3161   51.8022 C.ar    1  ZINC000478980774   -0.1100
     26 C26        -9.6556    3.5348   52.1510 C.ar    1  ZINC000478980774   -0.0300
     27 Cl27       -9.1930    3.5659   53.8240 Cl      1  ZINC000478980774   -0.0600
     28 H28        -5.1098    3.5646   52.9517 H       1  ZINC000478980774    0.0800
     29 H29        -4.4960    2.0434   52.2606 H       1  ZINC000478980774    0.0700
     30 H30        -3.3650    3.3558   52.6685 H       1  ZINC000478980774    0.0700
     31 H31        -4.7372    1.7486   49.1375 H       1  ZINC000478980774    0.4200
     32 H32        -1.9531    0.3587   49.8526 H       1  ZINC000478980774    0.1500
     33 H33        -0.2624   -0.6354   48.3667 H       1  ZINC000478980774    0.1500
     34 H34        -3.5726    2.5442   46.5549 H       1  ZINC000478980774    0.1600
     35 H35        -7.0534    3.4936   52.4946 H       1  ZINC000478980774    0.1100
     36 H36        -7.0957    5.0571   51.6450 H       1  ZINC000478980774    0.1300
     37 H37        -8.3320    3.8719   49.0660 H       1  ZINC000478980774    0.1400
     38 H38       -10.6810    3.4714   48.4457 H       1  ZINC000478980774    0.1300
     39 H39       -12.3742    3.1166   50.1973 H       1  ZINC000478980774    0.1300
     40 H40       -11.7191    3.1602   52.5704 H       1  ZINC000478980774    0.1300
@<TRIPOS>BOND
     1     1     2    1
     2     1    28    1
     3     1    29    1
     4     1    30    1
     5     2     3    1
     6     2     4    1
     7     2    18    1
     8     4     5    2
     9     4     6   am
    10     6     7    1
    11     6    31    1
    12     7    17   ar
    13     7     8   ar
    14     8     9   ar
    15     8    32    1
    16     9    10   ar
    17     9    33    1
    18    10    16   ar
    19    10    11    1
    20    11    12    1
    21    12    13    1
    22    12    14    1
    23    12    15    1
    24    15    16    1
    25    16    17   ar
    26    17    34    1
    27    18    19    2
    28    18    20    1
    29    20    21    1
    30    20    35    1
    31    20    36    1
    32    21    26   ar
    33    21    22   ar
    34    22    23   ar
    35    22    37    1
    36    23    24   ar
    37    23    38    1
    38    24    25   ar
    39    24    39    1
    40    25    26   ar
    41    25    40    1
    42    26    27    1
@<TRIPOS>SUBSTRUCTURE
     1 ZINC000478980774        1 TEMP              0 ****  ****    0 ROOT


##########                                Name:    ZINC001120957943
##########                DOCK_Rotatable_Bonds:                   4
##########                         Heavy_Atoms:                  27
##########                    Molecular_Weight:             396.802
##########                DOCK_Rotatable_Bonds:                   4
##########                       Formal_Charge:          -0.0199996
##########                     HBond_Acceptors:                  10
##########                        HBond_Donors:                   0
##########                         Heavy_Atoms:                  27
##########                          Grid_Score:          -32.566082
##########                     Grid_vdw_energy:          -32.626183
##########                      Grid_es_energy:            0.060101
##########           Internal_energy_repulsive:            6.800636

@<TRIPOS>MOLECULE
ZINC001120957943
 43 46 1 0 0
SMALL
USER_CHARGES


@<TRIPOS>ATOM
      1 C1         -1.2312   -0.8615   46.3886 C.3     1  ZINC001120957943    0.0900
      2 N2         -1.6146    0.5522   46.3593 N.pl3   1  ZINC001120957943   -0.6000
      3 C3         -1.8937    1.2092   45.0800 C.3     1  ZINC001120957943    0.2200
      4 C4         -0.8818    0.7645   44.0557 C.2     1  ZINC001120957943    0.1600
      5 N5         -1.1027   -0.0255   43.0364 N.2     1  ZINC001120957943   -0.2500
      6 N6         -0.0117   -0.1923   42.3704 N.2     1  ZINC001120957943   -0.2800
      7 C7          0.9463    0.4795   42.9332 C.2     1  ZINC001120957943    0.1700
      8 C8          2.3911    0.5851   42.5146 C.3     1  ZINC001120957943   -0.0300
      9 C9          3.1906    1.1499   43.6965 C.3     1  ZINC001120957943   -0.1300
     10 C10         2.4774    2.3895   44.2440 C.3     1  ZINC001120957943   -0.1500
     11 H11         2.2556    3.0725   43.4239 H       1  ZINC001120957943    0.1300
     12 C12         3.3811    3.0901   45.2604 C.3     1  ZINC001120957943    0.4600
     13 F13         2.8556    4.3514   45.5603 F       1  ZINC001120957943   -0.1700
     14 F14         3.4503    2.3239   46.4290 F       1  ZINC001120957943   -0.1800
     15 F15         4.6639    3.2355   44.7215 F       1  ZINC001120957943   -0.1800
     16 C16         1.1703    1.9705   44.9271 C.3     1  ZINC001120957943    0.1100
     17 N17         0.4195    1.1099   44.0134 N.pl3   1  ZINC001120957943   -0.4700
     18 C18        -1.7133    1.2686   47.5430 C.ar    1  ZINC001120957943    0.3700
     19 C19        -0.5599    1.5126   48.3090 C.ar    1  ZINC001120957943    0.0500
     20 N20        -0.6338    2.1882   49.4303 N.ar    1  ZINC001120957943   -0.3900
     21 C21        -1.8169    2.6516   49.8527 C.ar    1  ZINC001120957943    0.0400
     22 C22        -1.9227    3.3787   51.0503 C.ar    1  ZINC001120957943   -0.0600
     23 C23        -3.1389    3.8387   51.4562 C.ar    1  ZINC001120957943   -0.0400
     24 Cl24       -3.2638    4.7366   52.9367 Cl      1  ZINC001120957943   -0.0600
     25 C25        -4.2851    3.5989   50.6988 C.ar    1  ZINC001120957943   -0.0800
     26 C26        -4.2196    2.8984   49.5339 C.ar    1  ZINC001120957943   -0.0800
     27 C27        -2.9818    2.4079   49.0837 C.ar    1  ZINC001120957943    0.1400
     28 N28        -2.8881    1.7206   47.9387 N.ar    1  ZINC001120957943   -0.4700
     29 H29        -0.1468   -0.9454   46.3170 H       1  ZINC001120957943    0.0700
     30 H30        -1.5695   -1.3104   47.3224 H       1  ZINC001120957943    0.0800
     31 H31        -1.6921   -1.3804   45.5481 H       1  ZINC001120957943    0.0700
     32 H32        -2.8945    0.9387   44.7434 H       1  ZINC001120957943    0.1200
     33 H33        -1.8324    2.2902   45.2058 H       1  ZINC001120957943    0.1000
     34 H34         2.7711   -0.4021   42.2515 H       1  ZINC001120957943    0.1100
     35 H35         2.4783    1.2538   41.6583 H       1  ZINC001120957943    0.1000
     36 H36         3.2630    0.3959   44.4803 H       1  ZINC001120957943    0.0900
     37 H37         4.1909    1.4241   43.3613 H       1  ZINC001120957943    0.1000
     38 H38         1.3952    1.4273   45.8449 H       1  ZINC001120957943    0.1000
     39 H39         0.5790    2.8563   45.1596 H       1  ZINC001120957943    0.1100
     40 H40         0.3956    1.1398   47.9710 H       1  ZINC001120957943    0.1700
     41 H41        -1.0433    3.5719   51.6467 H       1  ZINC001120957943    0.1500
     42 H42        -5.2381    3.9740   51.0417 H       1  ZINC001120957943    0.1400
     43 H43        -5.1154    2.7198   48.9576 H       1  ZINC001120957943    0.1500
@<TRIPOS>BOND
     1     1     2    1
     2     1    29    1
     3     1    30    1
     4     1    31    1
     5     2     3    1
     6     2    18    1
     7     3     4    1
     8     3    32    1
     9     3    33    1
    10     4    17    1
    11     4     5    2
    12     5     6    1
    13     6     7    2
    14     7    17    1
    15     7     8    1
    16     8     9    1
    17     8    34    1
    18     8    35    1
    19     9    10    1
    20     9    36    1
    21     9    37    1
    22    10    11    1
    23    10    12    1
    24    10    16    1
    25    12    13    1
    26    12    14    1
    27    12    15    1
    28    16    17    1
    29    16    38    1
    30    16    39    1
    31    18    28   ar
    32    18    19   ar
    33    19    20   ar
    34    19    40    1
    35    20    21   ar
    36    21    27   ar
    37    21    22   ar
    38    22    23   ar
    39    22    41    1
    40    23    24    1
    41    23    25   ar
    42    25    26   ar
    43    25    42    1
    44    26    27   ar
    45    26    43    1
    46    27    28   ar
@<TRIPOS>SUBSTRUCTURE
     1 ZINC001120957943        1 TEMP              0 ****  ****    0 ROOT


##########                                Name:    ZINC000541252362
##########                DOCK_Rotatable_Bonds:                   5
##########                         Heavy_Atoms:                  27
##########                    Molecular_Weight:             401.254
##########                DOCK_Rotatable_Bonds:                   5
##########                       Formal_Charge:          -0.0199999
##########                     HBond_Acceptors:                   9
##########                        HBond_Donors:                   1
##########                         Heavy_Atoms:                  27
##########                          Grid_Score:          -32.565540
##########                     Grid_vdw_energy:          -32.291283
##########                      Grid_es_energy:           -0.274256
##########           Internal_energy_repulsive:            9.836750

@<TRIPOS>MOLECULE
ZINC000541252362
 41 44 1 0 0
SMALL
USER_CHARGES


@<TRIPOS>ATOM
      1 C1         -0.8318   -0.2540   42.3719 C.3     1  ZINC000541252362    0.1000
      2 N2         -0.8570    0.4024   43.6814 N.pl3   1  ZINC000541252362   -0.3800
      3 C3         -1.9445    0.8405   44.3411 C.2     1  ZINC000541252362    0.2600
      4 N4         -1.5541    1.3654   45.4724 N.2     1  ZINC000541252362   -0.5300
      5 C5         -0.2208    1.2826   45.5745 C.2     1  ZINC000541252362    0.2700
      6 C6          0.5911    1.7701   46.7171 C.ar    1  ZINC000541252362    0.0000
      7 C7          1.9641    1.5340   46.7495 C.ar    1  ZINC000541252362   -0.1000
      8 C8          2.7184    1.9886   47.8131 C.ar    1  ZINC000541252362   -0.1000
      9 C9          2.1159    2.6779   48.8480 C.ar    1  ZINC000541252362   -0.1300
     10 C10         0.7473    2.9178   48.8239 C.ar    1  ZINC000541252362    0.1400
     11 N11         0.1405    3.6162   49.8739 N.am    1  ZINC000541252362   -0.6800
     12 C12        -1.0095    3.1617   50.4099 C.2     1  ZINC000541252362    0.5100
     13 O13        -1.5186    2.1473   49.9822 O.2     1  ZINC000541252362   -0.4900
     14 C14        -1.6629    3.9138   51.5405 C.3     1  ZINC000541252362   -0.0600
     15 C15        -3.1461    4.0075   51.2907 C.2     1  ZINC000541252362    0.0700
     16 C16        -3.8548    5.1517   51.1710 C.2     1  ZINC000541252362   -0.0700
     17 N17        -5.1582    4.7987   50.9516 N.pl3   1  ZINC000541252362   -0.3500
     18 C18        -6.2942    5.5325   50.7604 C.2     1  ZINC000541252362    0.0700
     19 C19        -7.4820    4.9219   50.5615 C.2     1  ZINC000541252362   -0.0500
     20 Cl20       -8.9136    5.8737   50.3206 Cl      1  ZINC000541252362   -0.0200
     21 C21        -7.5642    3.5189   50.5480 C.2     1  ZINC000541252362   -0.0900
     22 C22        -6.4394    2.7761   50.7368 C.2     1  ZINC000541252362    0.0200
     23 Cl23       -6.5213    1.0420   50.7228 Cl      1  ZINC000541252362   -0.0100
     24 C24        -5.2068    3.4293   50.9438 C.2     1  ZINC000541252362    0.2200
     25 N25        -3.9781    2.9737   51.1449 N.2     1  ZINC000541252362   -0.4300
     26 C26        -0.0160    2.4696   47.7567 C.ar    1  ZINC000541252362   -0.0800
     27 N27         0.2486    0.6924   44.4973 N.2     1  ZINC000541252362   -0.3100
     28 H28        -0.9222   -1.3322   42.5042 H       1  ZINC000541252362    0.0800
     29 H29        -1.6631    0.1089   41.7675 H       1  ZINC000541252362    0.0900
     30 H30         0.1087   -0.0272   41.8698 H       1  ZINC000541252362    0.0900
     31 H31        -2.9652    0.7706   43.9950 H       1  ZINC000541252362    0.2200
     32 H32         2.4383    0.9950   45.9427 H       1  ZINC000541252362    0.1300
     33 H33         3.7824    1.8045   47.8362 H       1  ZINC000541252362    0.1300
     34 H34         2.7100    3.0307   49.6780 H       1  ZINC000541252362    0.1300
     35 H35         0.5477    4.4275   50.2158 H       1  ZINC000541252362    0.4100
     36 H36        -1.4849    3.3870   52.4780 H       1  ZINC000541252362    0.1200
     37 H37        -1.2406    4.9169   51.6017 H       1  ZINC000541252362    0.1200
     38 H38        -3.4652    6.1569   51.2369 H       1  ZINC000541252362    0.1900
     39 H39        -6.2421    6.6113   50.7689 H       1  ZINC000541252362    0.1800
     40 H40        -8.5153    3.0325   50.3890 H       1  ZINC000541252362    0.1600
     41 H41        -1.0797    2.6553   47.7359 H       1  ZINC000541252362    0.1500
@<TRIPOS>BOND
     1     1     2    1
     2     1    28    1
     3     1    29    1
     4     1    30    1
     5     2    27    1
     6     2     3    1
     7     3     4    2
     8     3    31    1
     9     4     5    1
    10     5     6    1
    11     5    27    2
    12     6    26   ar
    13     6     7   ar
    14     7     8   ar
    15     7    32    1
    16     8     9   ar
    17     8    33    1
    18     9    10   ar
    19     9    34    1
    20    10    11    1
    21    10    26   ar
    22    11    12   am
    23    11    35    1
    24    12    13    2
    25    12    14    1
    26    14    15    1
    27    14    36    1
    28    14    37    1
    29    15    25    1
    30    15    16    2
    31    16    17    1
    32    16    38    1
    33    17    24    1
    34    17    18    1
    35    18    19    2
    36    18    39    1
    37    19    20    1
    38    19    21    1
    39    21    22    2
    40    21    40    1
    41    22    23    1
    42    22    24    1
    43    24    25    2
    44    26    41    1
@<TRIPOS>SUBSTRUCTURE
     1 ZINC000541252362        1 TEMP              0 ****  ****    0 ROOT


##########                                Name:    ZINC000650955167
##########                DOCK_Rotatable_Bonds:                   9
##########                         Heavy_Atoms:                  26
##########                    Molecular_Weight:             361.484
##########                DOCK_Rotatable_Bonds:                   9
##########                       Formal_Charge:        -7.07805e-07
##########                     HBond_Acceptors:                   6
##########                        HBond_Donors:                   2
##########                         Heavy_Atoms:                  26
##########                          Grid_Score:          -32.526558
##########                     Grid_vdw_energy:          -31.994034
##########                      Grid_es_energy:           -0.532524
##########           Internal_energy_repulsive:           32.942310

@<TRIPOS>MOLECULE
ZINC000650955167
 57 59 1 0 0
SMALL
USER_CHARGES


@<TRIPOS>ATOM
      1 C1          2.1576    3.0911   44.2496 C.3     1  ZINC000650955167    0.0200
      2 O2          1.7934    1.8461   44.8492 O.3     1  ZINC000650955167   -0.3200
      3 C3          0.6561    1.2538   44.3990 C.ar    1  ZINC000650955167    0.1300
      4 C4          0.6903    0.4566   43.2645 C.ar    1  ZINC000650955167   -0.2000
      5 C5         -0.4673   -0.1449   42.8091 C.ar    1  ZINC000650955167   -0.0800
      6 C6         -1.6588    0.0477   43.4830 C.ar    1  ZINC000650955167   -0.1500
      7 C7         -1.6957    0.8424   44.6140 C.ar    1  ZINC000650955167   -0.0800
      8 C8         -0.5400    1.4410   45.0769 C.ar    1  ZINC000650955167   -0.1100
      9 C9         -0.5806    2.3065   46.3098 C.3     1  ZINC000650955167   -0.0800
     10 C10        -1.0377    1.4691   47.5060 C.3     1  ZINC000650955167    0.1800
     11 H11        -2.0458    1.0963   47.3245 H       1  ZINC000650955167    0.0900
     12 N12        -1.0340    2.2994   48.7131 N.am    1  ZINC000650955167   -0.7300
     13 C13        -2.1887    2.8138   49.1806 C.2     1  ZINC000650955167    0.7400
     14 O14        -3.2336    2.5876   48.6015 O.2     1  ZINC000650955167   -0.5800
     15 N15        -2.1851    3.5789   50.2902 N.am    1  ZINC000650955167   -0.6700
     16 C16        -3.1943    4.2888   51.0904 C.3     1  ZINC000650955167    0.1100
     17 C17        -2.0902    5.2660   51.5168 C.3     1  ZINC000650955167    0.0300
     18 N18        -2.1480    5.6605   52.9307 N.3     1  ZINC000650955167   -0.5100
     19 C19        -0.8947    6.3251   53.3470 C.3     1  ZINC000650955167    0.0400
     20 C20        -0.7003    5.9116   54.8271 C.3     1  ZINC000650955167   -0.1600
     21 C21        -1.2057    4.4449   54.8116 C.3     1  ZINC000650955167    0.0800
     22 H22        -0.4208    3.7705   54.4693 H       1  ZINC000650955167    0.0600
     23 O23        -1.6733    4.0579   56.1054 O.3     1  ZINC000650955167   -0.5600
     24 C24        -2.3683    4.4885   53.7977 C.3     1  ZINC000650955167    0.0500
     25 C25        -1.1707    4.0658   51.2374 C.3     1  ZINC000650955167    0.1400
     26 C26        -0.0837    0.2883   47.6962 C.3     1  ZINC000650955167   -0.1100
     27 C27         1.2188    0.7819   48.3294 C.3     1  ZINC000650955167   -0.1400
     28 C28        -0.7343   -0.7505   48.6120 C.3     1  ZINC000650955167   -0.1500
     29 H29         3.0820    3.4542   44.6989 H       1  ZINC000650955167    0.1000
     30 H30         2.3053    2.9493   43.1789 H       1  ZINC000650955167    0.0600
     31 H31         1.3634    3.8194   44.4135 H       1  ZINC000650955167    0.0600
     32 H32         1.6208    0.3063   42.7372 H       1  ZINC000650955167    0.1300
     33 H33        -0.4412   -0.7658   41.9258 H       1  ZINC000650955167    0.1200
     34 H34        -2.5627   -0.4231   43.1253 H       1  ZINC000650955167    0.1200
     35 H35        -2.6278    0.9916   45.1386 H       1  ZINC000650955167    0.1300
     36 H36         0.4141    2.7069   46.5056 H       1  ZINC000650955167    0.0900
     37 H37        -1.2790    3.1287   46.1537 H       1  ZINC000650955167    0.0800
     38 H38        -0.2006    2.4787   49.1757 H       1  ZINC000650955167    0.4000
     39 H39        -3.9766    4.7528   50.4897 H       1  ZINC000650955167    0.0700
     40 H40        -3.5909    3.6955   51.9143 H       1  ZINC000650955167    0.0900
     41 H41        -1.9535    6.1091   50.8396 H       1  ZINC000650955167    0.0900
     42 H42        -0.0593    5.9730   52.7417 H       1  ZINC000650955167    0.0500
     43 H43        -0.9939    7.4075   53.2653 H       1  ZINC000650955167    0.0900
     44 H44         0.3510    5.9594   55.1111 H       1  ZINC000650955167    0.0800
     45 H45        -1.3101    6.5277   55.4879 H       1  ZINC000650955167    0.0900
     46 H46        -2.0011    3.1493   56.1494 H       1  ZINC000650955167    0.3800
     47 H47        -3.3167    4.5903   54.3251 H       1  ZINC000650955167    0.0900
     48 H48        -2.3711    3.5785   53.1975 H       1  ZINC000650955167    0.0700
     49 H49        -1.0308    3.4158   52.1010 H       1  ZINC000650955167    0.0900
     50 H50        -0.2304    4.3412   50.7598 H       1  ZINC000650955167    0.0800
     51 H51         0.1316   -0.1646   46.7284 H       1  ZINC000650955167    0.0700
     52 H52         1.0036    1.2347   49.2972 H       1  ZINC000650955167    0.0600
     53 H53         1.8985   -0.0594   48.4650 H       1  ZINC000650955167    0.0400
     54 H54         1.6822    1.5220   47.6770 H       1  ZINC000650955167    0.0500
     55 H55        -1.6622   -1.1021   48.1610 H       1  ZINC000650955167    0.0600
     56 H56        -0.0546   -1.5918   48.7476 H       1  ZINC000650955167    0.0600
     57 H57        -0.9495   -0.2976   49.5799 H       1  ZINC000650955167    0.0600
@<TRIPOS>BOND
     1     1     2    1
     2     1    29    1
     3     1    30    1
     4     1    31    1
     5     2     3    1
     6     3     8   ar
     7     3     4   ar
     8     4     5   ar
     9     4    32    1
    10     5     6   ar
    11     5    33    1
    12     6     7   ar
    13     6    34    1
    14     7     8   ar
    15     7    35    1
    16     8     9    1
    17     9    10    1
    18     9    36    1
    19     9    37    1
    20    10    11    1
    21    10    12    1
    22    10    26    1
    23    12    13   am
    24    12    38    1
    25    13    14    2
    26    13    15   am
    27    15    25    1
    28    15    16    1
    29    16    17    1
    30    16    39    1
    31    16    40    1
    32    17    18    1
    33    17    25    1
    34    17    41    1
    35    18    24    1
    36    18    19    1
    37    19    20    1
    38    19    42    1
    39    19    43    1
    40    20    21    1
    41    20    44    1
    42    20    45    1
    43    21    22    1
    44    21    23    1
    45    21    24    1
    46    23    46    1
    47    24    47    1
    48    24    48    1
    49    25    49    1
    50    25    50    1
    51    26    27    1
    52    26    28    1
    53    26    51    1
    54    27    52    1
    55    27    53    1
    56    27    54    1
    57    28    55    1
    58    28    56    1
    59    28    57    1
@<TRIPOS>SUBSTRUCTURE
     1 ZINC000650955167        1 TEMP              0 ****  ****    0 ROOT


##########                                Name:    ZINC000948289723
##########                DOCK_Rotatable_Bonds:                   6
##########                         Heavy_Atoms:                  24
##########                    Molecular_Weight:             331.415
##########                DOCK_Rotatable_Bonds:                   6
##########                       Formal_Charge:           0.0599999
##########                     HBond_Acceptors:                   6
##########                        HBond_Donors:                   1
##########                         Heavy_Atoms:                  24
##########                          Grid_Score:          -32.516533
##########                     Grid_vdw_energy:          -32.478828
##########                      Grid_es_energy:           -0.037703
##########           Internal_energy_repulsive:            7.267934

@<TRIPOS>MOLECULE
ZINC000948289723
 49 52 1 0 0
SMALL
USER_CHARGES


@<TRIPOS>ATOM
      1 C1        -11.5150   -0.7950   54.8410 C.3     1  ZINC000948289723   -0.1400
      2 C2        -10.4854    0.3263   54.6870 C.3     1  ZINC000948289723   -0.1100
      3 C3         -9.0296   -0.1690   54.6931 C.3     1  ZINC000948289723   -0.1100
      4 C4         -8.7585    0.8571   53.5802 C.3     1  ZINC000948289723   -0.1400
      5 C5         -7.8451    0.3449   52.4965 C.2     1  ZINC000948289723    0.5400
      6 O6         -7.8040   -0.8415   52.2485 O.2     1  ZINC000948289723   -0.5300
      7 N7         -7.0738    1.2055   51.8030 N.am    1  ZINC000948289723   -0.6200
      8 C8         -7.0249    2.6617   51.9991 C.3     1  ZINC000948289723    0.1100
      9 C9         -5.9865    3.2233   51.0052 C.3     1  ZINC000948289723   -0.1100
     10 H10        -6.4748    3.5830   50.0995 H       1  ZINC000948289723    0.1000
     11 C11        -5.1642    4.3387   51.6538 C.3     1  ZINC000948289723   -0.1400
     12 C12        -5.0979    1.9894   50.6966 C.3     1  ZINC000948289723    0.1400
     13 H13        -4.3425    1.8489   51.4696 H       1  ZINC000948289723    0.1200
     14 N14        -4.4772    2.1065   49.3748 N.am    1  ZINC000948289723   -0.7100
     15 C15        -3.1677    1.8292   49.2183 C.2     1  ZINC000948289723    0.6100
     16 O16        -2.5018    1.4802   50.1737 O.2     1  ZINC000948289723   -0.5000
     17 C17        -2.5423    1.9489   47.8876 C.2     1  ZINC000948289723   -0.0900
     18 C18        -1.2079    2.0796   47.6149 C.2     1  ZINC000948289723   -0.1400
     19 C19        -1.1567    2.1527   46.2051 C.2     1  ZINC000948289723    0.0500
     20 C20         0.0789    2.3025   45.3553 C.3     1  ZINC000948289723   -0.0900
     21 C21         1.3774    1.6883   45.8822 C.3     1  ZINC000948289723   -0.1600
     22 C22         0.6466    1.0391   44.7052 C.3     1  ZINC000948289723   -0.1600
     23 N23        -2.3846    2.0650   45.7836 N.2     1  ZINC000948289723   -0.3300
     24 O24        -3.1687    1.9457   46.6959 O.3     1  ZINC000948289723    0.1200
     25 C25        -6.1348    0.8417   50.7262 C.3     1  ZINC000948289723    0.0900
     26 C26       -10.2517    0.7520   53.2279 C.3     1  ZINC000948289723   -0.1200
     27 H27       -11.1771   -1.6760   54.2953 H       1  ZINC000948289723    0.0600
     28 H28       -11.6276   -1.0424   55.8965 H       1  ZINC000948289723    0.0600
     29 H29       -12.4738   -0.4653   54.4408 H       1  ZINC000948289723    0.0600
     30 H30       -10.6663    1.1627   55.3622 H       1  ZINC000948289723    0.0900
     31 H31        -8.4999    0.0438   55.6218 H       1  ZINC000948289723    0.0700
     32 H32        -8.9191   -1.2039   54.3693 H       1  ZINC000948289723    0.1000
     33 H33        -8.4644    1.8381   53.9531 H       1  ZINC000948289723    0.1100
     34 H34        -8.0040    3.0961   51.7973 H       1  ZINC000948289723    0.0800
     35 H35        -6.7201    2.8881   53.0209 H       1  ZINC000948289723    0.0800
     36 H36        -4.6610    3.9509   52.5395 H       1  ZINC000948289723    0.0600
     37 H37        -4.4214    4.7024   50.9438 H       1  ZINC000948289723    0.0600
     38 H38        -5.8245    5.1573   51.9403 H       1  ZINC000948289723    0.0700
     39 H39        -5.0089    2.3838   48.6123 H       1  ZINC000948289723    0.4100
     40 H40        -0.3858    2.1185   48.3142 H       1  ZINC000948289723    0.1800
     41 H41         0.1537    3.2341   44.7945 H       1  ZINC000948289723    0.1300
     42 H42         2.3068    2.2160   45.6682 H       1  ZINC000948289723    0.1100
     43 H43         1.3380    1.1760   46.8435 H       1  ZINC000948289723    0.1000
     44 H44         0.1263    0.0997   44.8922 H       1  ZINC000948289723    0.1000
     45 H45         1.0951    1.1396   43.7169 H       1  ZINC000948289723    0.1100
     46 H46        -5.6451   -0.1062   50.9494 H       1  ZINC000948289723    0.0900
     47 H47        -6.6622    0.7823   49.7742 H       1  ZINC000948289723    0.0800
     48 H48       -10.4754   -0.0311   52.5034 H       1  ZINC000948289723    0.0900
     49 H49       -10.7086    1.7083   52.9736 H       1  ZINC000948289723    0.0800
@<TRIPOS>BOND
     1     1     2    1
     2     1    27    1
     3     1    28    1
     4     1    29    1
     5     2    26    1
     6     2     3    1
     7     2    30    1
     8     3     4    1
     9     3    31    1
    10     3    32    1
    11     4     5    1
    12     4    26    1
    13     4    33    1
    14     5     6    2
    15     5     7   am
    16     7    25    1
    17     7     8    1
    18     8     9    1
    19     8    34    1
    20     8    35    1
    21     9    10    1
    22     9    11    1
    23     9    12    1
    24    11    36    1
    25    11    37    1
    26    11    38    1
    27    12    13    1
    28    12    14    1
    29    12    25    1
    30    14    15   am
    31    14    39    1
    32    15    16    2
    33    15    17    1
    34    17    24    1
    35    17    18    2
    36    18    19    1
    37    18    40    1
    38    19    20    1
    39    19    23    2
    40    20    22    1
    41    20    21    1
    42    20    41    1
    43    21    22    1
    44    21    42    1
    45    21    43    1
    46    22    44    1
    47    22    45    1
    48    23    24    1
    49    25    46    1
    50    25    47    1
    51    26    48    1
    52    26    49    1
@<TRIPOS>SUBSTRUCTURE
     1 ZINC000948289723        1 TEMP              0 ****  ****    0 ROOT


##########                                Name:    ZINC000543020509
##########                DOCK_Rotatable_Bonds:                   5
##########                         Heavy_Atoms:                  26
##########                    Molecular_Weight:              366.81
##########                DOCK_Rotatable_Bonds:                   5
##########                       Formal_Charge:               -0.02
##########                     HBond_Acceptors:                   8
##########                        HBond_Donors:                   1
##########                         Heavy_Atoms:                  26
##########                          Grid_Score:          -32.513237
##########                     Grid_vdw_energy:          -32.311653
##########                      Grid_es_energy:           -0.201582
##########           Internal_energy_repulsive:            6.638515

@<TRIPOS>MOLECULE
ZINC000543020509
 41 43 1 0 0
SMALL
USER_CHARGES


@<TRIPOS>ATOM
      1 C1         -1.6895   -0.1872   44.1137 C.3     1  ZINC000543020509    0.0800
      2 N2         -0.5110    0.4759   44.6774 N.pl3   1  ZINC000543020509   -0.6200
      3 C3          0.4760    1.0949   43.7893 C.3     1  ZINC000543020509    0.0900
      4 C4         -0.3292    0.5178   46.0567 C.ar    1  ZINC000543020509    0.2500
      5 C5          0.8503    0.0531   46.6362 C.ar    1  ZINC000543020509   -0.2200
      6 C6          0.9968    0.1103   48.0099 C.ar    1  ZINC000543020509    0.1400
      7 N7          0.0412    0.5960   48.7738 N.ar    1  ZINC000543020509   -0.5000
      8 C8         -1.0995    1.0500   48.2656 C.ar    1  ZINC000543020509    0.1100
      9 C9         -2.1431    1.5870   49.1694 C.2     1  ZINC000543020509    0.5900
     10 O10        -1.8387    2.0022   50.2703 O.2     1  ZINC000543020509   -0.5000
     11 N11        -3.4303    1.6150   48.7710 N.am    1  ZINC000543020509   -0.6200
     12 C12        -4.4161    2.1238   49.6242 C.2     1  ZINC000543020509    0.3200
     13 N13        -5.3813    1.4325   50.1838 N.2     1  ZINC000543020509   -0.3100
     14 N14        -6.1515    2.3063   50.9620 N.pl3   1  ZINC000543020509   -0.3300
     15 C15        -7.2733    1.9605   51.7195 C.ar    1  ZINC000543020509    0.2200
     16 C16        -7.1801    0.9770   52.6931 C.ar    1  ZINC000543020509   -0.1300
     17 C17        -8.2899    0.6361   53.4416 C.ar    1  ZINC000543020509   -0.0500
     18 C18        -9.5024    1.2716   53.2268 C.ar    1  ZINC000543020509   -0.0600
     19 Cl19      -10.8884    0.8321   54.1754 Cl      1  ZINC000543020509   -0.0500
     20 C20        -9.6129    2.2527   52.2625 C.ar    1  ZINC000543020509   -0.0400
     21 C21        -8.4975    2.6106   51.5027 C.ar    1  ZINC000543020509   -0.0200
     22 C22        -8.6051    3.6277   50.5005 C.1     1  ZINC000543020509    0.2500
     23 N23        -8.6905    4.4347   49.7055 N.1     1  ZINC000543020509   -0.3800
     24 C24        -5.6145    3.5494   50.8503 C.2     1  ZINC000543020509    0.0700
     25 C25        -4.5399    3.4622   50.0346 C.2     1  ZINC000543020509   -0.2400
     26 C26        -1.3203    1.0311   46.8932 C.ar    1  ZINC000543020509   -0.1800
     27 H27        -1.4633   -1.2380   43.9325 H       1  ZINC000543020509    0.0600
     28 H28        -2.5201   -0.1102   44.8153 H       1  ZINC000543020509    0.0700
     29 H29        -1.9620    0.2931   43.1739 H       1  ZINC000543020509    0.0700
     30 H30         0.1660    0.9620   42.7527 H       1  ZINC000543020509    0.0800
     31 H31         0.5492    2.1592   44.0130 H       1  ZINC000543020509    0.0600
     32 H32         1.4473    0.6241   43.9412 H       1  ZINC000543020509    0.0600
     33 H33         1.6408   -0.3477   46.0191 H       1  ZINC000543020509    0.1400
     34 H34         1.9089   -0.2489   48.4629 H       1  ZINC000543020509    0.1700
     35 H35        -3.6735    1.2825   47.8928 H       1  ZINC000543020509    0.4300
     36 H36        -6.2386    0.4770   52.8661 H       1  ZINC000543020509    0.1500
     37 H37        -8.2121   -0.1306   54.1982 H       1  ZINC000543020509    0.1500
     38 H38       -10.5598    2.7455   52.0984 H       1  ZINC000543020509    0.1500
     39 H39        -5.9785    4.4458   51.3303 H       1  ZINC000543020509    0.1900
     40 H40        -3.8946    4.2781   49.7443 H       1  ZINC000543020509    0.1800
     41 H41        -2.2479    1.4010   46.4817 H       1  ZINC000543020509    0.1500
@<TRIPOS>BOND
     1     1     2    1
     2     1    27    1
     3     1    28    1
     4     1    29    1
     5     2     3    1
     6     2     4    1
     7     3    30    1
     8     3    31    1
     9     3    32    1
    10     4    26   ar
    11     4     5   ar
    12     5     6   ar
    13     5    33    1
    14     6     7   ar
    15     6    34    1
    16     7     8   ar
    17     8     9    1
    18     8    26   ar
    19     9    10    2
    20     9    11   am
    21    11    12    1
    22    11    35    1
    23    12    25    1
    24    12    13    2
    25    13    14    1
    26    14    15    1
    27    14    24    1
    28    15    21   ar
    29    15    16   ar
    30    16    17   ar
    31    16    36    1
    32    17    18   ar
    33    17    37    1
    34    18    19    1
    35    18    20   ar
    36    20    21   ar
    37    20    38    1
    38    21    22    1
    39    22    23    3
    40    24    25    2
    41    24    39    1
    42    25    40    1
    43    26    41    1
@<TRIPOS>SUBSTRUCTURE
     1 ZINC000543020509        1 TEMP              0 ****  ****    0 ROOT


##########                                Name:    ZINC000854704989
##########                DOCK_Rotatable_Bonds:                   5
##########                         Heavy_Atoms:                  22
##########                    Molecular_Weight:             365.227
##########                DOCK_Rotatable_Bonds:                   5
##########                       Formal_Charge:        -1.78814e-07
##########                     HBond_Acceptors:                   5
##########                        HBond_Donors:                   1
##########                         Heavy_Atoms:                  22
##########                          Grid_Score:          -32.505882
##########                     Grid_vdw_energy:          -31.630856
##########                      Grid_es_energy:           -0.875027
##########           Internal_energy_repulsive:            6.991984

@<TRIPOS>MOLECULE
ZINC000854704989
 39 41 1 0 0
SMALL
USER_CHARGES


@<TRIPOS>ATOM
      1 O1         -1.8140    1.6712   44.3777 O.2     1  ZINC000854704989   -0.5300
      2 C2         -1.6112    0.6223   44.9576 C.2     1  ZINC000854704989    0.5700
      3 N3         -1.3369   -0.4943   44.2544 N.am    1  ZINC000854704989   -0.7300
      4 C4         -1.2892   -0.4453   42.7911 C.3     1  ZINC000854704989    0.2000
      5 C5          0.1032   -0.0794   42.3458 C.2     1  ZINC000854704989   -0.0500
      6 C6          0.6868   -0.3982   41.1662 C.2     1  ZINC000854704989   -0.1700
      7 C7          1.9755    0.1789   41.2554 C.2     1  ZINC000854704989    0.0000
      8 Br8         3.3366    0.1206   39.9440 Br      1  ZINC000854704989    0.0600
      9 N9          2.0381    0.7588   42.4202 N.2     1  ZINC000854704989   -0.3200
     10 O10         1.0060    0.6308   43.0369 O.3     1  ZINC000854704989    0.1300
     11 C11        -1.6593    0.5728   46.4344 C.ar    1  ZINC000854704989   -0.1300
     12 C12        -0.9611   -0.4185   47.1256 C.ar    1  ZINC000854704989   -0.0900
     13 C13        -1.0099   -0.4588   48.5038 C.ar    1  ZINC000854704989   -0.1200
     14 C14        -1.7491    0.4802   49.2006 C.ar    1  ZINC000854704989   -0.0900
     15 C15        -2.4437    1.4657   48.5214 C.ar    1  ZINC000854704989   -0.0800
     16 C16        -3.2464    2.4845   49.2888 C.3     1  ZINC000854704989   -0.0800
     17 H17        -3.6254    3.2416   48.6023 H       1  ZINC000854704989    0.0900
     18 C18        -2.3559    3.1492   50.3431 C.3     1  ZINC000854704989   -0.1100
     19 C19        -3.2010    4.1254   51.1672 C.3     1  ZINC000854704989   -0.1600
     20 C20        -4.3759    3.3689   51.7925 C.3     1  ZINC000854704989    0.0600
     21 O21        -5.1453    2.7493   50.7599 O.3     1  ZINC000854704989   -0.3800
     22 C22        -4.4205    1.7917   49.9853 C.3     1  ZINC000854704989    0.0700
     23 C23        -2.3987    1.5207   47.1439 C.ar    1  ZINC000854704989   -0.0500
     24 H24        -1.1711   -1.3305   44.7174 H       1  ZINC000854704989    0.4000
     25 H25        -1.5555   -1.4216   42.3859 H       1  ZINC000854704989    0.1100
     26 H26        -1.9946    0.3028   42.4295 H       1  ZINC000854704989    0.1000
     27 H27         0.2663   -0.9626   40.3470 H       1  ZINC000854704989    0.1900
     28 H28        -0.3843   -1.1525   46.5826 H       1  ZINC000854704989    0.1200
     29 H29        -0.4700   -1.2253   49.0398 H       1  ZINC000854704989    0.1300
     30 H30        -1.7846    0.4438   50.2795 H       1  ZINC000854704989    0.1300
     31 H31        -1.9361    2.3866   50.9990 H       1  ZINC000854704989    0.0700
     32 H32        -1.5494    3.6918   49.8497 H       1  ZINC000854704989    0.0700
     33 H33        -2.5879    4.5620   51.9557 H       1  ZINC000854704989    0.0800
     34 H34        -3.5799    4.9158   50.5194 H       1  ZINC000854704989    0.0700
     35 H35        -3.9966    2.6051   52.4713 H       1  ZINC000854704989    0.0500
     36 H36        -5.0048    4.0668   52.3452 H       1  ZINC000854704989    0.1000
     37 H37        -5.0816    1.3539   49.2374 H       1  ZINC000854704989    0.1000
     38 H38        -4.0413    1.0068   50.6396 H       1  ZINC000854704989    0.0500
     39 H39        -2.9409    2.2906   46.6150 H       1  ZINC000854704989    0.1400
@<TRIPOS>BOND
     1     1     2    2
     2     2     3   am
     3     2    11    1
     4     3     4    1
     5     3    24    1
     6     4     5    1
     7     4    25    1
     8     4    26    1
     9     5    10    1
    10     5     6    2
    11     6     7    1
    12     6    27    1
    13     7     8    1
    14     7     9    2
    15     9    10    1
    16    11    23   ar
    17    11    12   ar
    18    12    13   ar
    19    12    28    1
    20    13    14   ar
    21    13    29    1
    22    14    15   ar
    23    14    30    1
    24    15    16    1
    25    15    23   ar
    26    16    17    1
    27    16    22    1
    28    16    18    1
    29    18    19    1
    30    18    31    1
    31    18    32    1
    32    19    20    1
    33    19    33    1
    34    19    34    1
    35    20    21    1
    36    20    35    1
    37    20    36    1
    38    21    22    1
    39    22    37    1
    40    22    38    1
    41    23    39    1
@<TRIPOS>SUBSTRUCTURE
     1 ZINC000854704989        1 TEMP              0 ****  ****    0 ROOT


##########                                Name:    ZINC000892389374
##########                DOCK_Rotatable_Bonds:                   6
##########                         Heavy_Atoms:                  25
##########                    Molecular_Weight:             371.383
##########                DOCK_Rotatable_Bonds:                   6
##########                       Formal_Charge:          -0.0199998
##########                     HBond_Acceptors:                   9
##########                        HBond_Donors:                   1
##########                         Heavy_Atoms:                  25
##########                          Grid_Score:          -32.465019
##########                     Grid_vdw_energy:          -33.354568
##########                      Grid_es_energy:            0.889550
##########           Internal_energy_repulsive:            8.312581

@<TRIPOS>MOLECULE
ZINC000892389374
 41 43 1 0 0
SMALL
USER_CHARGES


@<TRIPOS>ATOM
      1 C1         -0.9084    3.9424   50.9333 C.3     1  ZINC000892389374   -0.1000
      2 C2         -1.0590    3.0909   49.6989 C.ar    1  ZINC000892389374   -0.1800
      3 C3          0.0521    2.7645   48.9460 C.ar    1  ZINC000892389374   -0.0400
      4 C4         -0.0818    1.9837   47.8139 C.ar    1  ZINC000892389374   -0.2100
      5 C5         -1.3350    1.5248   47.4289 C.ar    1  ZINC000892389374    0.2200
      6 N6         -1.4695    0.7341   46.2821 N.am    1  ZINC000892389374   -0.5700
      7 C7         -1.6385    1.2381   44.9105 C.3     1  ZINC000892389374    0.0600
      8 C8         -1.7346   -0.0421   44.0584 C.3     1  ZINC000892389374    0.0400
      9 O9         -1.6110   -1.1219   45.0287 O.3     1  ZINC000892389374   -0.3200
     10 C10        -1.4596   -0.6056   46.2537 C.2     1  ZINC000892389374    0.6400
     11 O11        -1.3332   -1.2891   47.2504 O.2     1  ZINC000892389374   -0.5000
     12 C12        -2.4534    1.8506   48.1828 C.ar    1  ZINC000892389374   -0.2300
     13 C13        -2.3151    2.6301   49.3225 C.ar    1  ZINC000892389374    0.2400
     14 N14        -3.4382    2.9605   50.0841 N.pl3   1  ZINC000892389374   -0.7400
     15 C15        -4.6453    2.1341   50.0058 C.3     1  ZINC000892389374    0.2000
     16 C16        -5.4011    2.2242   51.3064 C.2     1  ZINC000892389374   -0.2400
     17 C17        -5.4531    3.2881   52.1135 C.2     1  ZINC000892389374    0.0600
     18 N18        -6.1841    3.1173   53.1966 N.2     1  ZINC000892389374   -0.4500
     19 C19        -6.7517    1.9685   53.3481 C.2     1  ZINC000892389374    0.0200
     20 C20        -7.6227    1.5842   54.5162 C.3     1  ZINC000892389374   -0.0900
     21 C21        -8.8847    0.8874   54.0038 C.3     1  ZINC000892389374    0.4600
     22 F22        -9.8031    0.7565   55.0510 F       1  ZINC000892389374   -0.1800
     23 F23        -9.4535    1.6486   52.9771 F       1  ZINC000892389374   -0.1800
     24 F24        -8.5515   -0.3803   53.5146 F       1  ZINC000892389374   -0.1700
     25 S25        -6.3784    0.9480   52.0281 S.3     1  ZINC000892389374    0.1900
     26 H26        -0.7315    3.3017   51.7972 H       1  ZINC000892389374    0.0700
     27 H27        -0.0652    4.6213   50.8057 H       1  ZINC000892389374    0.0700
     28 H28        -1.8195    4.5199   51.0897 H       1  ZINC000892389374    0.0600
     29 H29         1.0276    3.1207   49.2427 H       1  ZINC000892389374    0.1300
     30 H30         0.7890    1.7303   47.2273 H       1  ZINC000892389374    0.1200
     31 H31        -2.5546    1.8228   44.8278 H       1  ZINC000892389374    0.1000
     32 H32        -0.7752    1.8328   44.6122 H       1  ZINC000892389374    0.1000
     33 H33        -2.6982   -0.0923   43.5515 H       1  ZINC000892389374    0.1100
     34 H34        -0.9193   -0.0824   43.3360 H       1  ZINC000892389374    0.1100
     35 H35        -3.4289    1.4952   47.8853 H       1  ZINC000892389374    0.1600
     36 H36        -3.4190    3.7371   50.6650 H       1  ZINC000892389374    0.4000
     37 H37        -5.2776    2.4907   49.1927 H       1  ZINC000892389374    0.0900
     38 H38        -4.3646    1.0974   49.8198 H       1  ZINC000892389374    0.0800
     39 H39        -4.9382    4.2122   51.8959 H       1  ZINC000892389374    0.1800
     40 H40        -7.0743    0.9070   55.1711 H       1  ZINC000892389374    0.1300
     41 H41        -7.9020    2.4796   55.0714 H       1  ZINC000892389374    0.1400
@<TRIPOS>BOND
     1     1     2    1
     2     1    26    1
     3     1    27    1
     4     1    28    1
     5     2    13   ar
     6     2     3   ar
     7     3     4   ar
     8     3    29    1
     9     4     5   ar
    10     4    30    1
    11     5     6    1
    12     5    12   ar
    13     6    10   am
    14     6     7    1
    15     7     8    1
    16     7    31    1
    17     7    32    1
    18     8     9    1
    19     8    33    1
    20     8    34    1
    21     9    10    1
    22    10    11    2
    23    12    13   ar
    24    12    35    1
    25    13    14    1
    26    14    15    1
    27    14    36    1
    28    15    16    1
    29    15    37    1
    30    15    38    1
    31    16    25    1
    32    16    17    2
    33    17    18    1
    34    17    39    1
    35    18    19    2
    36    19    20    1
    37    19    25    1
    38    20    21    1
    39    20    40    1
    40    20    41    1
    41    21    22    1
    42    21    23    1
    43    21    24    1
@<TRIPOS>SUBSTRUCTURE
     1 ZINC000892389374        1 TEMP              0 ****  ****    0 ROOT


##########                                Name:    ZINC000763800048
##########                DOCK_Rotatable_Bonds:                   8
##########                         Heavy_Atoms:                  23
##########                    Molecular_Weight:             329.783
##########                DOCK_Rotatable_Bonds:                   8
##########                       Formal_Charge:           0.0199994
##########                     HBond_Acceptors:                   5
##########                        HBond_Donors:                   1
##########                         Heavy_Atoms:                  23
##########                          Grid_Score:          -32.432770
##########                     Grid_vdw_energy:          -33.042130
##########                      Grid_es_energy:            0.609361
##########           Internal_energy_repulsive:            3.751295

@<TRIPOS>MOLECULE
ZINC000763800048
 39 40 1 0 0
SMALL
USER_CHARGES


@<TRIPOS>ATOM
      1 C1         -1.7027   -0.4380   43.6805 C.3     1  ZINC000763800048    0.0400
      2 O2         -1.6929    0.9552   44.0897 O.3     1  ZINC000763800048   -0.3600
      3 C3         -1.1033    1.2422   45.2609 C.2     1  ZINC000763800048    0.4600
      4 O4         -0.5890    0.3624   45.9099 O.2     1  ZINC000763800048   -0.4900
      5 C5         -1.0829    2.6618   45.7662 C.3     1  ZINC000763800048   -0.0700
      6 C6         -1.2294    2.6632   47.2661 C.ar    1  ZINC000763800048   -0.0600
      7 C7         -0.2318    3.2031   48.0568 C.ar    1  ZINC000763800048   -0.1200
      8 C8         -0.3623    3.2063   49.4338 C.ar    1  ZINC000763800048   -0.1000
      9 C9         -1.4903    2.6706   50.0232 C.ar    1  ZINC000763800048   -0.1100
     10 C10        -2.4946    2.1279   49.2316 C.ar    1  ZINC000763800048    0.1500
     11 N11        -3.6381    1.5847   49.8252 N.am    1  ZINC000763800048   -0.6700
     12 C12        -4.6992    2.3725   50.0893 C.2     1  ZINC000763800048    0.5500
     13 O13        -4.6621    3.5568   49.8111 O.2     1  ZINC000763800048   -0.5200
     14 C14        -5.8960    1.8040   50.7106 C.2     1  ZINC000763800048   -0.2100
     15 C15        -5.8557    1.3829   51.9913 C.2     1  ZINC000763800048   -0.0100
     16 C16        -7.0596    0.8128   52.6166 C.ar    1  ZINC000763800048   -0.0800
     17 C17        -7.5881    1.3876   53.7770 C.ar    1  ZINC000763800048   -0.0900
     18 C18        -8.7160    0.8482   54.3573 C.ar    1  ZINC000763800048   -0.1100
     19 C19        -9.3258   -0.2611   53.7941 C.ar    1  ZINC000763800048   -0.0200
     20 Cl20      -10.7456   -0.9340   54.5322 Cl      1  ZINC000763800048   -0.0600
     21 C21        -8.8081   -0.8356   52.6445 C.ar    1  ZINC000763800048   -0.1100
     22 C22        -7.6842   -0.3033   52.0502 C.ar    1  ZINC000763800048   -0.0800
     23 C23        -2.3626    2.1305   47.8491 C.ar    1  ZINC000763800048   -0.1300
     24 H24        -2.2082   -0.5308   42.7193 H       1  ZINC000763800048    0.1000
     25 H25        -0.6777   -0.7967   43.5880 H       1  ZINC000763800048    0.0600
     26 H26        -2.2297   -1.0322   44.4270 H       1  ZINC000763800048    0.0600
     27 H27        -0.1378    3.1311   45.4931 H       1  ZINC000763800048    0.1200
     28 H28        -1.9072    3.2182   45.3202 H       1  ZINC000763800048    0.1200
     29 H29         0.6513    3.6226   47.5984 H       1  ZINC000763800048    0.1200
     30 H30         0.4190    3.6281   50.0486 H       1  ZINC000763800048    0.1300
     31 H31        -1.5914    2.6733   51.0984 H       1  ZINC000763800048    0.1400
     32 H32        -3.6676    0.6409   50.0470 H       1  ZINC000763800048    0.4100
     33 H33        -6.8115    1.7215   50.1437 H       1  ZINC000763800048    0.1300
     34 H34        -4.9399    1.4641   52.5579 H       1  ZINC000763800048    0.1400
     35 H35        -7.1133    2.2520   54.2174 H       1  ZINC000763800048    0.1400
     36 H36        -9.1251    1.2912   55.2532 H       1  ZINC000763800048    0.1400
     37 H37        -9.2887   -1.7002   52.2110 H       1  ZINC000763800048    0.1400
     38 H38        -7.2819   -0.7519   51.1539 H       1  ZINC000763800048    0.1400
     39 H39        -3.1418    1.7097   47.2308 H       1  ZINC000763800048    0.1300
@<TRIPOS>BOND
     1     1     2    1
     2     1    24    1
     3     1    25    1
     4     1    26    1
     5     2     3    1
     6     3     4    2
     7     3     5    1
     8     5     6    1
     9     5    27    1
    10     5    28    1
    11     6    23   ar
    12     6     7   ar
    13     7     8   ar
    14     7    29    1
    15     8     9   ar
    16     8    30    1
    17     9    10   ar
    18     9    31    1
    19    10    11    1
    20    10    23   ar
    21    11    12   am
    22    11    32    1
    23    12    13    2
    24    12    14    1
    25    14    15    2
    26    14    33    1
    27    15    16    1
    28    15    34    1
    29    16    22   ar
    30    16    17   ar
    31    17    18   ar
    32    17    35    1
    33    18    19   ar
    34    18    36    1
    35    19    20    1
    36    19    21   ar
    37    21    22   ar
    38    21    37    1
    39    22    38    1
    40    23    39    1
@<TRIPOS>SUBSTRUCTURE
     1 ZINC000763800048        1 TEMP              0 ****  ****    0 ROOT


##########                                Name:    ZINC000429196987
##########                DOCK_Rotatable_Bonds:                   7
##########                         Heavy_Atoms:                  28
##########                    Molecular_Weight:             403.505
##########                DOCK_Rotatable_Bonds:                   7
##########                       Formal_Charge:          -0.0399997
##########                     HBond_Acceptors:                   9
##########                        HBond_Donors:                   1
##########                         Heavy_Atoms:                  28
##########                          Grid_Score:          -32.426117
##########                     Grid_vdw_energy:          -30.808884
##########                      Grid_es_energy:           -1.617234
##########           Internal_energy_repulsive:           12.694775

@<TRIPOS>MOLECULE
ZINC000429196987
 53 55 1 0 0
SMALL
USER_CHARGES


@<TRIPOS>ATOM
      1 C1         -8.5172    5.4763   55.1544 C.3     1  ZINC000429196987    0.0800
      2 N2         -7.2782    4.7236   54.9432 N.am    1  ZINC000429196987   -0.6300
      3 C3         -6.5109    4.2383   56.0929 C.3     1  ZINC000429196987    0.1600
      4 C4         -7.2373    3.0818   56.7297 C.ar    1  ZINC000429196987   -0.0600
      5 C5         -7.7672    2.0789   55.9395 C.ar    1  ZINC000429196987   -0.1300
      6 C6         -8.4335    1.0179   56.5237 C.ar    1  ZINC000429196987   -0.0300
      7 C7         -8.5697    0.9597   57.8981 C.ar    1  ZINC000429196987   -0.6600
      8 S8         -9.4195   -0.3924   58.6427 S.o2    1  ZINC000429196987    2.5000
      9 C9         -8.1696   -1.1946   59.6841 C.3     1  ZINC000429196987   -0.6500
     10 O10       -10.4185    0.2210   59.4457 O.2     1  ZINC000429196987   -0.9400
     11 O11        -9.7704   -1.2303   57.5499 O.2     1  ZINC000429196987   -0.9400
     12 C12        -8.0387    1.9618   58.6883 C.ar    1  ZINC000429196987   -0.0300
     13 C13        -7.3690    3.0208   58.1045 C.ar    1  ZINC000429196987   -0.1100
     14 C14        -6.8444    4.4775   53.6911 C.2     1  ZINC000429196987    0.7100
     15 O15        -7.4805    4.8814   52.7370 O.2     1  ZINC000429196987   -0.5800
     16 N16        -5.7054    3.7836   53.4968 N.am    1  ZINC000429196987   -0.7400
     17 C17        -5.2348    3.5146   52.1358 C.3     1  ZINC000429196987    0.1600
     18 C18        -3.7294    3.7823   52.0526 C.3     1  ZINC000429196987   -0.1300
     19 C19        -3.2326    3.4416   50.6457 C.3     1  ZINC000429196987    0.0700
     20 N20        -3.5138    2.0300   50.3545 N.3     1  ZINC000429196987   -0.4700
     21 C21        -2.9590    1.6523   49.1367 C.ar    1  ZINC000429196987    0.2500
     22 C22        -1.9423    0.6989   49.0955 C.ar    1  ZINC000429196987   -0.1300
     23 C23        -1.4231    0.3573   47.8568 C.ar    1  ZINC000429196987   -0.1000
     24 C24        -1.9462    0.9842   46.7346 C.ar    1  ZINC000429196987    0.0200
     25 N25        -2.9085    1.8755   46.8657 N.ar    1  ZINC000429196987   -0.2200
     26 N26        -3.3979    2.1928   48.0091 N.ar    1  ZINC000429196987   -0.2800
     27 C27        -4.9567    1.7593   50.3820 C.3     1  ZINC000429196987    0.0600
     28 C28        -5.5051    2.0499   51.7810 C.3     1  ZINC000429196987   -0.1200
     29 H29        -8.2894    6.5402   55.2198 H       1  ZINC000429196987    0.0600
     30 H30        -9.1959    5.3007   54.3197 H       1  ZINC000429196987    0.0700
     31 H31        -8.9883    5.1479   56.0809 H       1  ZINC000429196987    0.0800
     32 H32        -5.5262    3.9101   55.7601 H       1  ZINC000429196987    0.1000
     33 H33        -6.3992    5.0421   56.8206 H       1  ZINC000429196987    0.0900
     34 H34        -7.6608    2.1244   54.8657 H       1  ZINC000429196987    0.1300
     35 H35        -8.8481    0.2347   55.9064 H       1  ZINC000429196987    0.1400
     36 H36        -7.8051   -0.4844   60.4265 H       1  ZINC000429196987    0.1300
     37 H37        -8.6135   -2.0524   60.1891 H       1  ZINC000429196987    0.1300
     38 H38        -7.3388   -1.5287   59.0625 H       1  ZINC000429196987    0.1300
     39 H39        -8.1447    1.9162   59.7622 H       1  ZINC000429196987    0.1400
     40 H40        -6.9541    3.8037   58.7219 H       1  ZINC000429196987    0.1400
     41 H41        -5.1973    3.4624   54.2580 H       1  ZINC000429196987    0.4000
     42 H42        -5.7602    4.1624   51.4339 H       1  ZINC000429196987    0.0900
     43 H43        -3.5347    4.8341   52.2625 H       1  ZINC000429196987    0.0800
     44 H44        -3.2087    3.1625   52.7824 H       1  ZINC000429196987    0.0700
     45 H45        -3.7437    4.0714   49.9177 H       1  ZINC000429196987    0.0600
     46 H46        -2.1585    3.6175   50.5874 H       1  ZINC000429196987    0.0900
     47 H47        -1.5708    0.2415   50.0005 H       1  ZINC000429196987    0.1500
     48 H48        -0.6343   -0.3750   47.7674 H       1  ZINC000429196987    0.1500
     49 H49        -1.5647    0.7420   45.7537 H       1  ZINC000429196987    0.1700
     50 H50        -5.4598    2.3970   49.6551 H       1  ZINC000429196987    0.0500
     51 H51        -5.1350    0.7134   50.1322 H       1  ZINC000429196987    0.0900
     52 H52        -5.0123    1.4028   52.5066 H       1  ZINC000429196987    0.0800
     53 H53        -6.5790    1.8637   51.7968 H       1  ZINC000429196987    0.0800
@<TRIPOS>BOND
     1     1     2    1
     2     1    29    1
     3     1    30    1
     4     1    31    1
     5     2     3    1
     6     2    14   am
     7     3     4    1
     8     3    32    1
     9     3    33    1
    10     4    13   ar
    11     4     5   ar
    12     5     6   ar
    13     5    34    1
    14     6     7   ar
    15     6    35    1
    16     7     8    1
    17     7    12   ar
    18     8     9    1
    19     8    10    2
    20     8    11    2
    21     9    36    1
    22     9    37    1
    23     9    38    1
    24    12    13   ar
    25    12    39    1
    26    13    40    1
    27    14    15    2
    28    14    16   am
    29    16    17    1
    30    16    41    1
    31    17    28    1
    32    17    18    1
    33    17    42    1
    34    18    19    1
    35    18    43    1
    36    18    44    1
    37    19    20    1
    38    19    45    1
    39    19    46    1
    40    20    21    1
    41    20    27    1
    42    21    26   ar
    43    21    22   ar
    44    22    23   ar
    45    22    47    1
    46    23    24   ar
    47    23    48    1
    48    24    25   ar
    49    24    49    1
    50    25    26   ar
    51    27    28    1
    52    27    50    1
    53    27    51    1
    54    28    52    1
    55    28    53    1
@<TRIPOS>SUBSTRUCTURE
     1 ZINC000429196987        1 TEMP              0 ****  ****    0 ROOT


##########                                Name:    ZINC000426567005
##########                DOCK_Rotatable_Bonds:                   9
##########                         Heavy_Atoms:                  31
##########                    Molecular_Weight:             417.467
##########                DOCK_Rotatable_Bonds:                   9
##########                       Formal_Charge:        -2.23517e-07
##########                     HBond_Acceptors:                   8
##########                        HBond_Donors:                   4
##########                         Heavy_Atoms:                  31
##########                          Grid_Score:          -32.424057
##########                     Grid_vdw_energy:          -32.289421
##########                      Grid_es_energy:           -0.134635
##########           Internal_energy_repulsive:           17.775019

@<TRIPOS>MOLECULE
ZINC000426567005
 54 57 1 0 0
SMALL
USER_CHARGES


@<TRIPOS>ATOM
      1 O1         -3.5256    3.4787   50.0905 O.2     1  ZINC000426567005   -0.4900
      2 C2         -3.7352    2.2836   50.0533 C.2     1  ZINC000426567005    0.5200
      3 N3         -2.8017    1.4510   49.5515 N.am    1  ZINC000426567005   -0.6000
      4 C4         -1.5933    1.9648   49.0679 C.2     1  ZINC000426567005    0.3000
      5 N5         -1.3062    3.2352   48.9033 N.2     1  ZINC000426567005   -0.3100
      6 N6         -0.0017    3.3265   48.4014 N.pl3   1  ZINC000426567005   -0.4600
      7 C7          0.4847    2.0741   48.2701 C.2     1  ZINC000426567005    0.1100
      8 C8          1.8549    1.7032   47.7639 C.3     1  ZINC000426567005   -0.0300
      9 C9          2.7410    1.1890   48.9255 C.3     1  ZINC000426567005   -0.1200
     10 C10         3.7965    0.3239   48.1929 C.3     1  ZINC000426567005   -0.1300
     11 C11         3.0013   -0.3719   47.0689 C.3     1  ZINC000426567005   -0.1300
     12 C12         1.7668    0.5051   46.7961 C.3     1  ZINC000426567005   -0.1200
     13 C13        -0.4730    1.2119   48.6795 C.2     1  ZINC000426567005   -0.2600
     14 C14        -5.0241    1.7356   50.5691 C.2     1  ZINC000426567005    0.5200
     15 O15        -5.9332    1.4977   49.8008 O.2     1  ZINC000426567005   -0.4900
     16 N16        -5.1787    1.5049   51.8880 N.am    1  ZINC000426567005   -0.6400
     17 C17        -6.3814    0.9935   52.3692 C.ar    1  ZINC000426567005    0.1700
     18 C18        -7.0901    1.6877   53.3454 C.ar    1  ZINC000426567005   -0.1300
     19 C19        -8.2793    1.1850   53.8231 C.ar    1  ZINC000426567005   -0.0300
     20 C20        -8.7750   -0.0238   53.3264 C.ar    1  ZINC000426567005   -0.1500
     21 C21       -10.0497   -0.5654   53.8359 C.2     1  ZINC000426567005    0.5600
     22 O22       -10.4625   -1.6339   53.4280 O.2     1  ZINC000426567005   -0.5100
     23 N23       -10.7562    0.1243   54.7533 N.am    1  ZINC000426567005   -0.6700
     24 C24       -11.9642   -0.3890   55.2362 C.ar    1  ZINC000426567005    0.1400
     25 C25       -11.9630   -1.3096   56.2761 C.ar    1  ZINC000426567005   -0.1500
     26 C26       -13.1577   -1.8142   56.7511 C.ar    1  ZINC000426567005   -0.1000
     27 C27       -14.3542   -1.4038   56.1922 C.ar    1  ZINC000426567005   -0.1300
     28 C28       -14.3588   -0.4877   55.1564 C.ar    1  ZINC000426567005   -0.1000
     29 C29       -13.1679    0.0251   54.6807 C.ar    1  ZINC000426567005   -0.1200
     30 C30        -8.0612   -0.7182   52.3458 C.ar    1  ZINC000426567005   -0.0600
     31 C31        -6.8751   -0.2077   51.8687 C.ar    1  ZINC000426567005   -0.1400
     32 H32        -2.9675    0.4956   49.5256 H       1  ZINC000426567005    0.4300
     33 H33         0.4699    4.1464   48.1859 H       1  ZINC000426567005    0.4400
     34 H34         2.3231    2.5564   47.2731 H       1  ZINC000426567005    0.1100
     35 H35         3.2166    2.0203   49.4459 H       1  ZINC000426567005    0.0800
     36 H36         2.1570    0.5820   49.6174 H       1  ZINC000426567005    0.0700
     37 H37         4.5804    0.9535   47.7722 H       1  ZINC000426567005    0.0700
     38 H38         4.2226   -0.4145   48.8722 H       1  ZINC000426567005    0.0700
     39 H39         3.6129   -0.4458   46.1696 H       1  ZINC000426567005    0.0700
     40 H40         2.6897   -1.3652   47.3917 H       1  ZINC000426567005    0.0700
     41 H41         0.8560   -0.0626   46.9866 H       1  ZINC000426567005    0.0600
     42 H42         1.7792    0.8568   45.7645 H       1  ZINC000426567005    0.0700
     43 H43        -0.3933    0.1351   48.6978 H       1  ZINC000426567005    0.1700
     44 H44        -4.4523    1.6952   52.5020 H       1  ZINC000426567005    0.4300
     45 H45        -6.7066    2.6217   53.7288 H       1  ZINC000426567005    0.1500
     46 H46        -8.8283    1.7236   54.5811 H       1  ZINC000426567005    0.1400
     47 H47       -10.4269    0.9767   55.0787 H       1  ZINC000426567005    0.4100
     48 H48       -11.0288   -1.6308   56.7128 H       1  ZINC000426567005    0.1300
     49 H49       -13.1574   -2.5304   57.5594 H       1  ZINC000426567005    0.1300
     50 H50       -15.2871   -1.7999   56.5655 H       1  ZINC000426567005    0.1200
     51 H51       -15.2949   -0.1697   54.7217 H       1  ZINC000426567005    0.1300
     52 H52       -13.1722    0.7408   53.8720 H       1  ZINC000426567005    0.1300
     53 H53        -8.4414   -1.6526   51.9602 H       1  ZINC000426567005    0.1300
     54 H54        -6.3230   -0.7438   51.1109 H       1  ZINC000426567005    0.1400
@<TRIPOS>BOND
     1     1     2    2
     2     2     3   am
     3     2    14    1
     4     3     4    1
     5     3    32    1
     6     4    13    1
     7     4     5    2
     8     5     6    1
     9     6     7    1
    10     6    33    1
    11     7     8    1
    12     7    13    2
    13     8    12    1
    14     8     9    1
    15     8    34    1
    16     9    10    1
    17     9    35    1
    18     9    36    1
    19    10    11    1
    20    10    37    1
    21    10    38    1
    22    11    12    1
    23    11    39    1
    24    11    40    1
    25    12    41    1
    26    12    42    1
    27    13    43    1
    28    14    15    2
    29    14    16   am
    30    16    17    1
    31    16    44    1
    32    17    31   ar
    33    17    18   ar
    34    18    19   ar
    35    18    45    1
    36    19    20   ar
    37    19    46    1
    38    20    21    1
    39    20    30   ar
    40    21    22    2
    41    21    23   am
    42    23    24    1
    43    23    47    1
    44    24    29   ar
    45    24    25   ar
    46    25    26   ar
    47    25    48    1
    48    26    27   ar
    49    26    49    1
    50    27    28   ar
    51    27    50    1
    52    28    29   ar
    53    28    51    1
    54    29    52    1
    55    30    31   ar
    56    30    53    1
    57    31    54    1
@<TRIPOS>SUBSTRUCTURE
     1 ZINC000426567005        1 TEMP              0 ****  ****    0 ROOT


##########                                Name:    ZINC001356153960
##########                DOCK_Rotatable_Bonds:                   8
##########                         Heavy_Atoms:                  24
##########                    Molecular_Weight:             334.366
##########                DOCK_Rotatable_Bonds:                   8
##########                       Formal_Charge:           0.0100003
##########                     HBond_Acceptors:                   6
##########                        HBond_Donors:                   1
##########                         Heavy_Atoms:                  24
##########                          Grid_Score:          -32.413437
##########                     Grid_vdw_energy:          -31.435335
##########                      Grid_es_energy:           -0.978101
##########           Internal_energy_repulsive:           18.914021

@<TRIPOS>MOLECULE
ZINC001356153960
 44 46 1 0 0
SMALL
USER_CHARGES


@<TRIPOS>ATOM
      1 O1         -3.0293    2.1824   48.2425 O.2     1  ZINC001356153960   -0.5200
      2 C2         -2.6242    2.3874   49.3678 C.2     1  ZINC001356153960    0.5100
      3 N3         -3.4663    2.2882   50.4156 N.am    1  ZINC001356153960   -0.7000
      4 C4         -4.8690    1.9270   50.1963 C.3     1  ZINC001356153960    0.1300
      5 C5         -5.7646    2.8040   51.0737 C.3     1  ZINC001356153960   -0.0800
      6 H6         -5.6724    3.8503   50.7828 H       1  ZINC001356153960    0.0900
      7 C7         -7.2036    2.3542   50.9722 C.2     1  ZINC001356153960   -0.1700
      8 C8         -7.7643    2.3034   52.1498 C.2     1  ZINC001356153960   -0.1600
      9 C9         -6.7927    2.7108   53.2330 C.3     1  ZINC001356153960   -0.1000
     10 C10        -5.3985    2.6253   52.5653 C.3     1  ZINC001356153960   -0.1200
     11 C11        -1.1933    2.7558   49.5916 C.2     1  ZINC001356153960    0.5100
     12 O12        -0.9000    3.8935   49.8954 O.2     1  ZINC001356153960   -0.5100
     13 N13        -0.2285    1.8245   49.4558 N.am    1  ZINC001356153960   -0.5500
     14 C14        -0.5825    0.4511   49.0890 C.3     1  ZINC001356153960    0.1300
     15 C15        -0.7986    0.3687   47.6000 C.ar    1  ZINC001356153960   -0.1600
     16 C16        -0.5736    1.4776   46.8068 C.ar    1  ZINC001356153960   -0.0300
     17 C17        -0.7660    1.4019   45.4401 C.ar    1  ZINC001356153960   -0.1700
     18 C18        -1.1955    0.2177   44.8656 C.ar    1  ZINC001356153960    0.1400
     19 F19        -1.3884    0.1453   43.5304 F       1  ZINC001356153960   -0.1300
     20 C20        -1.4268   -0.8925   45.6599 C.ar    1  ZINC001356153960   -0.2000
     21 C21        -1.2283   -0.8170   47.0274 C.ar    1  ZINC001356153960    0.1500
     22 F22        -1.4540   -1.8994   47.8037 F       1  ZINC001356153960   -0.1200
     23 C23         1.1743    2.1857   49.6750 C.3     1  ZINC001356153960    0.0700
     24 C24         1.9806    1.3269   50.6514 C.3     1  ZINC001356153960   -0.1900
     25 C25         1.5542    2.7424   51.0486 C.3     1  ZINC001356153960   -0.1800
     26 H26        -3.1435    2.4560   51.3147 H       1  ZINC001356153960    0.4100
     27 H27        -5.1243    2.0813   49.1479 H       1  ZINC001356153960    0.0800
     28 H28        -5.0194    0.8792   50.4564 H       1  ZINC001356153960    0.0800
     29 H29        -7.7025    2.1070   50.0468 H       1  ZINC001356153960    0.1200
     30 H30        -8.7880    2.0086   52.3268 H       1  ZINC001356153960    0.1300
     31 H31        -6.9938    3.7312   53.5593 H       1  ZINC001356153960    0.0800
     32 H32        -6.8550    2.0237   54.0770 H       1  ZINC001356153960    0.0700
     33 H33        -4.9395    1.6525   52.7418 H       1  ZINC001356153960    0.0800
     34 H34        -4.7487    3.4307   52.9080 H       1  ZINC001356153960    0.0800
     35 H35         0.2254   -0.2215   49.3767 H       1  ZINC001356153960    0.0900
     36 H36        -1.4977    0.1616   49.6055 H       1  ZINC001356153960    0.1400
     37 H37        -0.2431    2.4032   47.2547 H       1  ZINC001356153960    0.1600
     38 H38        -0.5859    2.2681   44.8208 H       1  ZINC001356153960    0.1400
     39 H39        -1.7621   -1.8165   45.2126 H       1  ZINC001356153960    0.1500
     40 H40         1.6976    2.5868   48.8071 H       1  ZINC001356153960    0.1400
     41 H41         1.4673    0.4932   51.1307 H       1  ZINC001356153960    0.1400
     42 H42         3.0344    1.1635   50.4260 H       1  ZINC001356153960    0.0900
     43 H43         2.3277    3.5096   51.0842 H       1  ZINC001356153960    0.1000
     44 H44         0.7603    2.8400   51.7892 H       1  ZINC001356153960    0.0900
@<TRIPOS>BOND
     1     1     2    2
     2     2     3   am
     3     2    11    1
     4     3     4    1
     5     3    26    1
     6     4     5    1
     7     4    27    1
     8     4    28    1
     9     5     6    1
    10     5    10    1
    11     5     7    1
    12     7     8    2
    13     7    29    1
    14     8     9    1
    15     8    30    1
    16     9    10    1
    17     9    31    1
    18     9    32    1
    19    10    33    1
    20    10    34    1
    21    11    12    2
    22    11    13   am
    23    13    14    1
    24    13    23    1
    25    14    15    1
    26    14    35    1
    27    14    36    1
    28    15    21   ar
    29    15    16   ar
    30    16    17   ar
    31    16    37    1
    32    17    18   ar
    33    17    38    1
    34    18    19    1
    35    18    20   ar
    36    20    21   ar
    37    20    39    1
    38    21    22    1
    39    23    25    1
    40    23    24    1
    41    23    40    1
    42    24    25    1
    43    24    41    1
    44    24    42    1
    45    25    43    1
    46    25    44    1
@<TRIPOS>SUBSTRUCTURE
     1 ZINC001356153960        1 TEMP              0 ****  ****    0 ROOT


##########                                Name:    ZINC000929592477
##########                DOCK_Rotatable_Bonds:                   7
##########                         Heavy_Atoms:                  28
##########                    Molecular_Weight:             399.517
##########                DOCK_Rotatable_Bonds:                   7
##########                       Formal_Charge:         -8.9407e-08
##########                     HBond_Acceptors:                   8
##########                        HBond_Donors:                   3
##########                         Heavy_Atoms:                  28
##########                          Grid_Score:          -32.402779
##########                     Grid_vdw_energy:          -32.304344
##########                      Grid_es_energy:           -0.098434
##########           Internal_energy_repulsive:           30.505875

@<TRIPOS>MOLECULE
ZINC000929592477
 53 56 1 0 0
SMALL
USER_CHARGES


@<TRIPOS>ATOM
      1 O1         -3.7642    1.2873   50.2608 O.2     1  ZINC000929592477   -0.5700
      2 C2         -3.6074    2.1911   49.4625 C.2     1  ZINC000929592477    0.7100
      3 N3         -4.3782    3.2944   49.5339 N.am    1  ZINC000929592477   -0.6800
      4 C4         -5.3644    3.3977   50.5249 C.ar    1  ZINC000929592477    0.1600
      5 C5         -5.3708    4.4861   51.3870 C.ar    1  ZINC000929592477   -0.1300
      6 C6         -6.3415    4.5881   52.3633 C.ar    1  ZINC000929592477   -0.0800
      7 C7         -7.3125    3.6015   52.4828 C.ar    1  ZINC000929592477   -0.1000
      8 S8         -8.5521    3.7313   53.7282 S.3     1  ZINC000929592477   -0.1100
      9 C9         -9.4984    2.1973   53.5236 C.3     1  ZINC000929592477   -0.0800
     10 C10        -8.6190    0.9684   53.8632 C.3     1  ZINC000929592477   -0.1200
     11 C11        -9.6672   -0.1114   54.2297 C.3     1  ZINC000929592477   -0.1200
     12 C12       -10.7575    0.6648   54.9967 C.3     1  ZINC000929592477   -0.1200
     13 C13       -10.6503    2.1328   54.5477 C.3     1  ZINC000929592477   -0.1000
     14 C14        -7.3061    2.5128   51.6196 C.ar    1  ZINC000929592477   -0.1200
     15 C15        -6.3380    2.4144   50.6403 C.ar    1  ZINC000929592477   -0.1000
     16 N16        -2.6593    2.0918   48.5098 N.am    1  ZINC000929592477   -0.7300
     17 C17        -1.8215    0.8925   48.4323 C.3     1  ZINC000929592477    0.1500
     18 H18        -2.2237    0.1013   49.0648 H       1  ZINC000929592477    0.1200
     19 C19        -0.3570    1.2195   48.8268 C.3     1  ZINC000929592477   -0.1400
     20 C20         0.2057    1.7797   47.4966 C.3     1  ZINC000929592477    0.1100
     21 N21        -0.4299    0.9651   46.4451 N.pl3   1  ZINC000929592477   -0.6000
     22 C22         0.0724    0.7542   45.1773 C.2     1  ZINC000929592477    0.4600
     23 C23        -0.6460    0.0078   44.2580 C.2     1  ZINC000929592477   -0.4000
     24 C24        -0.1003   -0.1828   42.9810 C.2     1  ZINC000929592477    0.5300
     25 O25        -0.6992   -0.8334   42.1394 O.2     1  ZINC000929592477   -0.5500
     26 N26         1.0996    0.3668   42.6995 N.am    1  ZINC000929592477   -0.6400
     27 C27         1.7550    1.0843   43.6337 C.2     1  ZINC000929592477    0.4100
     28 N28         1.2580    1.2755   44.8248 N.2     1  ZINC000929592477   -0.5700
     29 C29        -1.6912    0.4110   46.9718 C.3     1  ZINC000929592477    0.1100
     30 H30        -4.2504    4.0171   48.8996 H       1  ZINC000929592477    0.4100
     31 H31        -4.6160    5.2529   51.2941 H       1  ZINC000929592477    0.1300
     32 H32        -6.3460    5.4343   53.0342 H       1  ZINC000929592477    0.1300
     33 H33        -9.8865    2.1221   52.5078 H       1  ZINC000929592477    0.1000
     34 H34        -8.0341    0.6606   52.9963 H       1  ZINC000929592477    0.0700
     35 H35        -7.9699    1.1807   54.7127 H       1  ZINC000929592477    0.0800
     36 H36       -10.0823   -0.5617   53.3279 H       1  ZINC000929592477    0.0700
     37 H37        -9.2216   -0.8744   54.8679 H       1  ZINC000929592477    0.0700
     38 H38       -11.7423    0.2694   54.7479 H       1  ZINC000929592477    0.0700
     39 H39       -10.5845    0.5891   56.0702 H       1  ZINC000929592477    0.0700
     40 H40       -10.4252    2.7694   55.4034 H       1  ZINC000929592477    0.0700
     41 H41       -11.5830    2.4496   54.0811 H       1  ZINC000929592477    0.0800
     42 H42        -8.0607    1.7457   51.7121 H       1  ZINC000929592477    0.1300
     43 H43        -6.3331    1.5684   49.9690 H       1  ZINC000929592477    0.1400
     44 H44        -2.5316    2.8144   47.8755 H       1  ZINC000929592477    0.4000
     45 H45        -0.3233    1.9733   49.6135 H       1  ZINC000929592477    0.0900
     46 H46         0.1769    0.3184   49.1282 H       1  ZINC000929592477    0.0900
     47 H47        -0.0674    2.8285   47.3810 H       1  ZINC000929592477    0.0700
     48 H48         1.2890    1.6630   47.4639 H       1  ZINC000929592477    0.0800
     49 H49        -1.6038   -0.4174   44.5189 H       1  ZINC000929592477    0.1500
     50 H50         1.4924    0.2448   41.8210 H       1  ZINC000929592477    0.4200
     51 H51         2.7143    1.5156   43.3886 H       1  ZINC000929592477    0.2100
     52 H52        -1.6599   -0.6781   46.9394 H       1  ZINC000929592477    0.0900
     53 H53        -2.5318    0.7775   46.3827 H       1  ZINC000929592477    0.0800
@<TRIPOS>BOND
     1     1     2    2
     2     2     3   am
     3     2    16   am
     4     3     4    1
     5     3    30    1
     6     4    15   ar
     7     4     5   ar
     8     5     6   ar
     9     5    31    1
    10     6     7   ar
    11     6    32    1
    12     7     8    1
    13     7    14   ar
    14     8     9    1
    15     9    13    1
    16     9    10    1
    17     9    33    1
    18    10    11    1
    19    10    34    1
    20    10    35    1
    21    11    12    1
    22    11    36    1
    23    11    37    1
    24    12    13    1
    25    12    38    1
    26    12    39    1
    27    13    40    1
    28    13    41    1
    29    14    15   ar
    30    14    42    1
    31    15    43    1
    32    16    17    1
    33    16    44    1
    34    17    18    1
    35    17    29    1
    36    17    19    1
    37    19    20    1
    38    19    45    1
    39    19    46    1
    40    20    21    1
    41    20    47    1
    42    20    48    1
    43    21    22    1
    44    21    29    1
    45    22    28    1
    46    22    23    2
    47    23    24    1
    48    23    49    1
    49    24    25    2
    50    24    26   am
    51    26    27    1
    52    26    50    1
    53    27    28    2
    54    27    51    1
    55    29    52    1
    56    29    53    1
@<TRIPOS>SUBSTRUCTURE
     1 ZINC000929592477        1 TEMP              0 ****  ****    0 ROOT


##########                                Name:    ZINC000409064708
##########                DOCK_Rotatable_Bonds:                   8
##########                         Heavy_Atoms:                  29
##########                    Molecular_Weight:             415.442
##########                DOCK_Rotatable_Bonds:                   8
##########                       Formal_Charge:                0.03
##########                     HBond_Acceptors:                   8
##########                        HBond_Donors:                   0
##########                         Heavy_Atoms:                  29
##########                          Grid_Score:          -32.392952
##########                     Grid_vdw_energy:          -31.123144
##########                      Grid_es_energy:           -1.269806
##########           Internal_energy_repulsive:           20.587257

@<TRIPOS>MOLECULE
ZINC000409064708
 47 49 1 0 0
SMALL
USER_CHARGES


@<TRIPOS>ATOM
      1 C1         -0.2249   -0.9481   48.7544 C.3     1  ZINC000409064708    0.0400
      2 O2         -1.2787   -0.8183   47.7640 O.3     1  ZINC000409064708   -0.3500
      3 C3         -1.1739    0.1970   46.8922 C.2     1  ZINC000409064708    0.4600
      4 O4         -1.5683    0.0627   45.7581 O.2     1  ZINC000409064708   -0.4900
      5 C5         -0.5643    1.5045   47.3281 C.3     1  ZINC000409064708    0.1400
      6 H6          0.4780    1.3452   47.6045 H       1  ZINC000409064708    0.1500
      7 C7         -0.6391    2.5106   46.1781 C.3     1  ZINC000409064708   -0.1600
      8 N8         -1.3011    2.0261   48.4821 N.am    1  ZINC000409064708   -0.5600
      9 C9         -0.6445    2.4130   49.5818 C.2     1  ZINC000409064708    0.5400
     10 O10         0.5591    2.3848   49.7546 O.2     1  ZINC000409064708   -0.4200
     11 S11        -1.8640    2.9754   50.7384 S.3     1  ZINC000409064708   -0.0100
     12 C12        -3.2382    2.6559   49.6614 C.2     1  ZINC000409064708   -0.2400
     13 C13        -4.5569    2.8620   49.9070 C.2     1  ZINC000409064708    0.0900
     14 C14        -4.9857    3.4146   51.1982 C.ar    1  ZINC000409064708   -0.1400
     15 C15        -5.3259    2.5567   52.2514 C.ar    1  ZINC000409064708    0.0000
     16 C16        -5.7273    3.0801   53.4598 C.ar    1  ZINC000409064708   -0.1600
     17 C17        -5.7955    4.4575   53.6353 C.ar    1  ZINC000409064708    0.1600
     18 O18        -6.1919    4.9683   54.8292 O.3     1  ZINC000409064708   -0.3000
     19 C19        -5.3182    5.9112   55.4535 C.3     1  ZINC000409064708    0.1000
     20 C20        -3.9919    5.2549   55.7385 C.ar    1  ZINC000409064708   -0.0700
     21 C21        -2.9088    5.5003   54.9156 C.ar    1  ZINC000409064708   -0.1000
     22 C22        -1.6913    4.8988   55.1758 C.ar    1  ZINC000409064708   -0.0900
     23 C23        -1.5560    4.0518   56.2591 C.ar    1  ZINC000409064708   -0.1400
     24 C24        -2.6404    3.8056   57.0845 C.ar    1  ZINC000409064708    0.1000
     25 F25        -2.5093    2.9775   58.1439 F       1  ZINC000409064708   -0.1400
     26 C26        -3.8575    4.4124   56.8260 C.ar    1  ZINC000409064708   -0.1300
     27 C27        -5.4589    5.3137   52.5932 C.ar    1  ZINC000409064708   -0.2200
     28 C28        -5.0503    4.8013   51.3826 C.ar    1  ZINC000409064708   -0.0400
     29 C29        -2.6195    2.1229   48.4423 C.2     1  ZINC000409064708    0.5600
     30 O30        -3.2711    1.7886   47.4703 O.2     1  ZINC000409064708   -0.4600
     31 H31         0.7312   -1.0919   48.2509 H       1  ZINC000409064708    0.0700
     32 H32        -0.1834   -0.0438   49.3615 H       1  ZINC000409064708    0.0700
     33 H33        -0.4312   -1.8061   49.3942 H       1  ZINC000409064708    0.1100
     34 H34        -0.0910    2.1226   45.3196 H       1  ZINC000409064708    0.1000
     35 H35        -1.6815    2.6699   45.9018 H       1  ZINC000409064708    0.0800
     36 H36        -0.1983    3.4563   46.4933 H       1  ZINC000409064708    0.0800
     37 H37        -5.2911    2.6197   49.1528 H       1  ZINC000409064708    0.1600
     38 H38        -5.2740    1.4866   52.1159 H       1  ZINC000409064708    0.1300
     39 H39        -5.9899    2.4196   54.2728 H       1  ZINC000409064708    0.1400
     40 H40        -5.1674    6.7620   54.7892 H       1  ZINC000409064708    0.0800
     41 H41        -5.7621    6.2541   56.3882 H       1  ZINC000409064708    0.0800
     42 H42        -3.0137    6.1619   54.0685 H       1  ZINC000409064708    0.1300
     43 H43        -0.8457    5.0909   54.5320 H       1  ZINC000409064708    0.1400
     44 H44        -0.6051    3.5815   56.4618 H       1  ZINC000409064708    0.1400
     45 H45        -4.7038    4.2215   57.4692 H       1  ZINC000409064708    0.1400
     46 H46        -5.5140    6.3829   52.7349 H       1  ZINC000409064708    0.1300
     47 H47        -4.7889    5.4673   50.5736 H       1  ZINC000409064708    0.1300
@<TRIPOS>BOND
     1     1     2    1
     2     1    31    1
     3     1    32    1
     4     1    33    1
     5     2     3    1
     6     3     4    2
     7     3     5    1
     8     5     6    1
     9     5     7    1
    10     5     8    1
    11     7    34    1
    12     7    35    1
    13     7    36    1
    14     8    29   am
    15     8     9   am
    16     9    10    2
    17     9    11    1
    18    11    12    1
    19    12    13    2
    20    12    29    1
    21    13    14    1
    22    13    37    1
    23    14    28   ar
    24    14    15   ar
    25    15    16   ar
    26    15    38    1
    27    16    17   ar
    28    16    39    1
    29    17    18    1
    30    17    27   ar
    31    18    19    1
    32    19    20    1
    33    19    40    1
    34    19    41    1
    35    20    26   ar
    36    20    21   ar
    37    21    22   ar
    38    21    42    1
    39    22    23   ar
    40    22    43    1
    41    23    24   ar
    42    23    44    1
    43    24    25    1
    44    24    26   ar
    45    26    45    1
    46    27    28   ar
    47    27    46    1
    48    28    47    1
    49    29    30    2
@<TRIPOS>SUBSTRUCTURE
     1 ZINC000409064708        1 TEMP              0 ****  ****    0 ROOT


##########                                Name:    ZINC000342525234
##########                DOCK_Rotatable_Bonds:                   6
##########                         Heavy_Atoms:                  25
##########                    Molecular_Weight:             333.349
##########                DOCK_Rotatable_Bonds:                   6
##########                       Formal_Charge:           0.0500003
##########                     HBond_Acceptors:                   7
##########                        HBond_Donors:                   2
##########                         Heavy_Atoms:                  25
##########                          Grid_Score:          -32.367256
##########                     Grid_vdw_energy:          -31.547474
##########                      Grid_es_energy:           -0.819784
##########           Internal_energy_repulsive:            3.812744

@<TRIPOS>MOLECULE
ZINC000342525234
 40 43 1 0 0
SMALL
USER_CHARGES


@<TRIPOS>ATOM
      1 O1         -4.6716    3.6263   50.0553 O.2     1  <0>        -0.5100
      2 C2         -4.4592    2.4632   50.3347 C.2     1  <0>         0.6000
      3 N3         -3.2147    1.9589   50.2196 N.am    1  <0>        -0.7100
      4 C4         -2.1191    2.8116   49.7516 C.3     1  <0>         0.1200
      5 C5         -0.8810    1.9523   49.4877 C.3     1  <0>        -0.0900
      6 C6         -1.1007    1.1217   48.2496 C.ar    1  <0>        -0.0400
      7 C7         -1.1455    1.7374   47.0419 C.ar    1  <0>        -0.1000
      8 C8         -1.3508    0.9696   45.8753 C.ar    1  <0>         0.1100
      9 N9         -1.4443    1.2448   44.5871 N.2     1  <0>        -0.3100
     10 N10        -1.6551    0.0545   43.8818 N.pl3   1  <0>        -0.4200
     11 C11        -1.6947   -0.9800   44.7324 C.2     1  <0>         0.0900
     12 C12        -1.5107   -0.4866   46.0107 C.ar    1  <0>        -0.2100
     13 C13        -1.4530   -1.0593   47.2992 C.ar    1  <0>        -0.0400
     14 C14        -1.2469   -0.2616   48.3769 C.ar    1  <0>        -0.1500
     15 C15        -5.5684    1.5997   50.8086 C.2     1  <0>        -0.0200
     16 N16        -5.6726    0.3017   50.6599 N.2     1  <0>        -0.3200
     17 O17        -6.6904   -0.1255   51.1526 O.3     1  <0>         0.1400
     18 C18        -7.4227    0.8539   51.7116 C.2     1  <0>         0.0100
     19 C19        -8.7214    0.7048   52.4032 C.ar    1  <0>         0.0200
     20 C20        -9.2637   -0.5617   52.6499 C.ar    1  <0>        -0.1400
     21 C21       -10.4778   -0.6545   53.2986 C.ar    1  <0>         0.1100
     22 N22       -11.1249    0.4288   53.6836 N.ar    1  <0>        -0.4800
     23 C23       -10.6495    1.6410   53.4709 C.ar    1  <0>         0.1100
     24 C24        -9.4396    1.8260   52.8343 C.ar    1  <0>        -0.1500
     25 C25        -6.7258    2.0137   51.5190 C.2     1  <0>        -0.1500
     26 H26        -3.0444    1.0313   50.4464 H       1  <0>         0.4100
     27 H27        -2.4168    3.3127   48.8306 H       1  <0>         0.0800
     28 H28        -1.8886    3.5570   50.5127 H       1  <0>         0.0800
     29 H29        -0.0148    2.5979   49.3432 H       1  <0>         0.0900
     30 H30        -0.7064    1.2953   50.3398 H       1  <0>         0.0800
     31 H31        -1.0252    2.8084   46.9732 H       1  <0>         0.1300
     32 H32        -1.7576   -0.0118   42.9196 H       1  <0>         0.4500
     33 H33        -1.8443   -2.0160   44.4665 H       1  <0>         0.1900
     34 H34        -1.5673   -2.1258   47.4261 H       1  <0>         0.1300
     35 H35        -1.2035   -0.7066   49.3600 H       1  <0>         0.1200
     36 H36        -8.7398   -1.4527   52.3370 H       1  <0>         0.1400
     37 H37       -10.9045   -1.6272   53.4936 H       1  <0>         0.1700
     38 H38       -11.2134    2.5000   53.8033 H       1  <0>         0.1700
     39 H39        -9.0566    2.8213   52.6635 H       1  <0>         0.1500
     40 H40        -6.9955    3.0125   51.8290 H       1  <0>         0.1900
@<TRIPOS>BOND
     1     1     2    2
     2     2     3   am
     3     2    15    1
     4     3     4    1
     5     3    26    1
     6     4     5    1
     7     4    27    1
     8     4    28    1
     9     5     6    1
    10     5    29    1
    11     5    30    1
    12     6    14   ar
    13     6     7   ar
    14     7     8   ar
    15     7    31    1
    16     8    12   ar
    17     8     9    2
    18     9    10    1
    19    10    11    1
    20    10    32    1
    21    11    12    2
    22    11    33    1
    23    12    13   ar
    24    13    14   ar
    25    13    34    1
    26    14    35    1
    27    15    25    1
    28    15    16    2
    29    16    17    1
    30    17    18    1
    31    18    19    1
    32    18    25    2
    33    19    24   ar
    34    19    20   ar
    35    20    21   ar
    36    20    36    1
    37    21    22   ar
    38    21    37    1
    39    22    23   ar
    40    23    24   ar
    41    23    38    1
    42    24    39    1
    43    25    40    1
@<TRIPOS>SUBSTRUCTURE
     1 <0>         1 TEMP              0 ****  ****    0 ROOT


##########                                Name:    ZINC000675319328
##########                DOCK_Rotatable_Bonds:                   7
##########                         Heavy_Atoms:                  26
##########                    Molecular_Weight:             363.475
##########                DOCK_Rotatable_Bonds:                   7
##########                       Formal_Charge:          -0.0200007
##########                     HBond_Acceptors:                   6
##########                        HBond_Donors:                   1
##########                         Heavy_Atoms:                  26
##########                          Grid_Score:          -32.341171
##########                     Grid_vdw_energy:          -32.127949
##########                      Grid_es_energy:           -0.213222
##########           Internal_energy_repulsive:           26.354609

@<TRIPOS>MOLECULE
ZINC000675319328
 56 58 1 0 0
SMALL
USER_CHARGES


@<TRIPOS>ATOM
      1 C1          0.4550    3.2386   49.3991 C.3     1  ZINC000675319328   -0.1600
      2 C2         -0.2788    2.1921   50.2399 C.3     1  ZINC000675319328    0.1600
      3 H3         -0.0582    2.3540   51.2950 H       1  ZINC000675319328    0.0900
      4 C4          0.1849    0.7926   49.8309 C.3     1  ZINC000675319328   -0.1200
      5 C5         -0.7437    0.2445   48.7455 C.3     1  ZINC000675319328   -0.1200
      6 H6         -1.7882    0.3883   49.0221 H       1  ZINC000675319328    0.0800
      7 C7         -0.4396    0.9047   47.3730 C.3     1  ZINC000675319328   -0.1500
      8 C8         -0.8901   -0.2153   46.4017 C.3     1  ZINC000675319328    0.0500
      9 O9         -0.5249   -1.4438   47.0505 O.3     1  ZINC000675319328   -0.3900
     10 C10        -0.4482   -1.2455   48.4706 C.3     1  ZINC000675319328    0.0500
     11 N11        -1.7220    2.3124   50.0187 N.am    1  ZINC000675319328   -0.7400
     12 C12        -2.4286    3.2523   50.6773 C.2     1  ZINC000675319328    0.7000
     13 O13        -1.8683    4.0004   51.4550 O.2     1  ZINC000675319328   -0.5900
     14 N14        -3.7563    3.3630   50.4739 N.am    1  ZINC000675319328   -0.6200
     15 C15        -4.4082    2.4406   49.5236 C.3     1  ZINC000675319328    0.1300
     16 C16        -5.7579    1.9412   50.0662 C.3     1  ZINC000675319328   -0.1300
     17 C17        -5.6374    1.6607   51.5479 C.3     1  ZINC000675319328    0.0700
     18 N18        -6.0252    2.8564   52.2943 N.3     1  ZINC000675319328   -0.5500
     19 C19        -6.7175    2.4984   53.5394 C.3     1  ZINC000675319328    0.1000
     20 C20        -8.1365    2.0979   53.2280 C.ar    1  ZINC000675319328   -0.0900
     21 C21        -8.7125    1.0275   53.8867 C.ar    1  ZINC000675319328   -0.0900
     22 C22       -10.0137    0.6594   53.6019 C.ar    1  ZINC000675319328   -0.1500
     23 C23       -10.7408    1.3632   52.6569 C.ar    1  ZINC000675319328    0.1000
     24 F24       -12.0131    1.0044   52.3781 F       1  ZINC000675319328   -0.1400
     25 C25       -10.1631    2.4354   51.9982 C.ar    1  ZINC000675319328   -0.1500
     26 C26        -8.8632    2.8047   52.2881 C.ar    1  ZINC000675319328   -0.0700
     27 C27        -5.0032    3.8039   52.5369 C.3     1  ZINC000675319328    0.0500
     28 C28        -4.4903    4.3790   51.2006 C.3     1  ZINC000675319328    0.1100
     29 H29         0.1247    4.2357   49.6905 H       1  ZINC000675319328    0.0600
     30 H30         1.5288    3.1491   49.5636 H       1  ZINC000675319328    0.0700
     31 H31         0.2345    3.0768   48.3439 H       1  ZINC000675319328    0.0500
     32 H32         1.2031    0.8455   49.4453 H       1  ZINC000675319328    0.0700
     33 H33         0.1588    0.1333   50.6984 H       1  ZINC000675319328    0.0900
     34 H34        -1.0320    1.8086   47.2319 H       1  ZINC000675319328    0.0800
     35 H35         0.6246    1.1138   47.2648 H       1  ZINC000675319328    0.0800
     36 H36        -1.9687   -0.1737   46.2503 H       1  ZINC000675319328    0.0600
     37 H37        -0.3696   -0.1216   45.4486 H       1  ZINC000675319328    0.0900
     38 H38         0.5526   -1.4928   48.8249 H       1  ZINC000675319328    0.0700
     39 H39        -1.1849   -1.8733   48.9719 H       1  ZINC000675319328    0.0700
     40 H40        -2.1690    1.7157   49.3983 H       1  ZINC000675319328    0.3900
     41 H41        -4.5732    2.9591   48.5791 H       1  ZINC000675319328    0.0600
     42 H42        -3.7547    1.5855   49.3508 H       1  ZINC000675319328    0.0900
     43 H43        -6.5194    2.7036   49.9021 H       1  ZINC000675319328    0.0800
     44 H44        -6.0424    1.0269   49.5458 H       1  ZINC000675319328    0.0800
     45 H45        -6.2948    0.8340   51.8169 H       1  ZINC000675319328    0.0700
     46 H46        -4.6063    1.4004   51.7868 H       1  ZINC000675319328    0.0400
     47 H47        -6.2010    1.6650   54.0157 H       1  ZINC000675319328    0.0900
     48 H48        -6.7214    3.3558   54.2125 H       1  ZINC000675319328    0.0400
     49 H49        -8.1452    0.4787   54.6238 H       1  ZINC000675319328    0.1300
     50 H50       -10.4632   -0.1773   54.1161 H       1  ZINC000675319328    0.1400
     51 H51       -10.7290    2.9849   51.2606 H       1  ZINC000675319328    0.1400
     52 H52        -8.4125    3.6411   51.7747 H       1  ZINC000675319328    0.1300
     53 H53        -5.3980    4.6122   53.1523 H       1  ZINC000675319328    0.0900
     54 H54        -4.1792    3.3207   53.0619 H       1  ZINC000675319328    0.0300
     55 H55        -3.8334    5.2260   51.3986 H       1  ZINC000675319328    0.0700
     56 H56        -5.3370    4.7103   50.5995 H       1  ZINC000675319328    0.0900
@<TRIPOS>BOND
     1     1     2    1
     2     1    29    1
     3     1    30    1
     4     1    31    1
     5     2     3    1
     6     2     4    1
     7     2    11    1
     8     4     5    1
     9     4    32    1
    10     4    33    1
    11     5     6    1
    12     5    10    1
    13     5     7    1
    14     7     8    1
    15     7    34    1
    16     7    35    1
    17     8     9    1
    18     8    36    1
    19     8    37    1
    20     9    10    1
    21    10    38    1
    22    10    39    1
    23    11    12   am
    24    11    40    1
    25    12    13    2
    26    12    14   am
    27    14    28    1
    28    14    15    1
    29    15    16    1
    30    15    41    1
    31    15    42    1
    32    16    17    1
    33    16    43    1
    34    16    44    1
    35    17    18    1
    36    17    45    1
    37    17    46    1
    38    18    19    1
    39    18    27    1
    40    19    20    1
    41    19    47    1
    42    19    48    1
    43    20    26   ar
    44    20    21   ar
    45    21    22   ar
    46    21    49    1
    47    22    23   ar
    48    22    50    1
    49    23    24    1
    50    23    25   ar
    51    25    26   ar
    52    25    51    1
    53    26    52    1
    54    27    28    1
    55    27    53    1
    56    27    54    1
    57    28    55    1
    58    28    56    1
@<TRIPOS>SUBSTRUCTURE
     1 ZINC000675319328        1 TEMP              0 ****  ****    0 ROOT


##########                                Name:    ZINC000579444893
##########                DOCK_Rotatable_Bonds:                   8
##########                         Heavy_Atoms:                  26
##########                    Molecular_Weight:             365.494
##########                DOCK_Rotatable_Bonds:                   8
##########                       Formal_Charge:         -0.00999993
##########                     HBond_Acceptors:                   7
##########                        HBond_Donors:                   1
##########                         Heavy_Atoms:                  26
##########                          Grid_Score:          -32.340603
##########                     Grid_vdw_energy:          -30.586670
##########                      Grid_es_energy:           -1.753932
##########           Internal_energy_repulsive:           29.757317

@<TRIPOS>MOLECULE
ZINC000579444893
 58 60 1 0 0
SMALL
USER_CHARGES


@<TRIPOS>ATOM
      1 C1         -0.6427   -0.2727   49.2013 C.3     1  ZINC000579444893   -0.1600
      2 C2         -1.4943    0.7395   48.4323 C.3     1  ZINC000579444893    0.1700
      3 H3         -2.4124    0.2593   48.0939 H       1  ZINC000579444893    0.0900
      4 N4         -1.8265    1.8647   49.3098 N.am    1  ZINC000579444893   -0.7400
      5 C5         -3.1013    2.2911   49.4055 C.2     1  ZINC000579444893    0.7100
      6 O6         -3.9757    1.7429   48.7624 O.2     1  ZINC000579444893   -0.5900
      7 N7         -3.4072    3.3252   50.2140 N.am    1  ZINC000579444893   -0.6300
      8 C8         -2.3542    3.9845   50.9901 C.3     1  ZINC000579444893    0.0800
      9 C9         -4.7928    3.7898   50.3166 C.3     1  ZINC000579444893    0.1100
     10 C10        -5.3801    3.3500   51.6592 C.3     1  ZINC000579444893    0.0600
     11 H11        -4.7908    3.7668   52.4759 H       1  ZINC000579444893    0.1000
     12 C12        -5.3870    1.8095   51.7498 C.3     1  ZINC000579444893   -0.1600
     13 C13        -6.7268    1.5078   52.4714 C.3     1  ZINC000579444893    0.0800
     14 H14        -6.6213    1.6134   53.5511 H       1  ZINC000579444893    0.1000
     15 F15        -7.1992    0.2336   52.1389 F       1  ZINC000579444893   -0.2000
     16 C16        -7.6487    2.6105   51.8934 C.3     1  ZINC000579444893    0.0200
     17 N17        -6.7789    3.8035   51.7675 N.3     1  ZINC000579444893   -0.5000
     18 C18        -7.1613    4.6133   50.6031 C.3     1  ZINC000579444893    0.1000
     19 C19        -8.5447    5.1729   50.8128 C.2     1  ZINC000579444893    0.0800
     20 C20        -9.0798    5.5551   51.9954 C.2     1  ZINC000579444893   -0.2500
     21 C21       -10.3783    6.0146   51.7519 C.2     1  ZINC000579444893    0.0400
     22 N22       -10.6142    5.9119   50.4690 N.2     1  ZINC000579444893   -0.2900
     23 N23        -9.4698    5.3880   49.8541 N.pl3   1  ZINC000579444893   -0.3700
     24 C24        -9.3088    5.1135   48.4241 C.3     1  ZINC000579444893    0.0900
     25 C25        -0.7102    1.2508   47.2220 C.3     1  ZINC000579444893   -0.1000
     26 C26        -0.2557    0.0678   46.3315 C.3     1  ZINC000579444893   -0.1200
     27 C27        -0.0584    0.7372   44.9487 C.3     1  ZINC000579444893   -0.1300
     28 C28        -1.2080    1.7617   44.8568 C.3     1  ZINC000579444893   -0.1300
     29 C29        -1.6225    2.0882   46.3022 C.3     1  ZINC000579444893   -0.1200
     30 H30        -1.1632   -0.5677   50.1123 H       1  ZINC000579444893    0.0600
     31 H31        -0.4727   -1.1514   48.5791 H       1  ZINC000579444893    0.0700
     32 H32         0.3145    0.1799   49.4600 H       1  ZINC000579444893    0.0500
     33 H33        -1.1288    2.3028   49.8219 H       1  ZINC000579444893    0.4000
     34 H34        -1.8678    4.7405   50.3738 H       1  ZINC000579444893    0.0600
     35 H35        -2.7927    4.4586   51.8682 H       1  ZINC000579444893    0.0800
     36 H36        -1.6184    3.2449   51.3059 H       1  ZINC000579444893    0.0700
     37 H37        -4.8173    4.8774   50.2481 H       1  ZINC000579444893    0.0900
     38 H38        -5.3808    3.3613   49.5050 H       1  ZINC000579444893    0.0900
     39 H39        -5.3765    1.3649   50.7547 H       1  ZINC000579444893    0.1100
     40 H40        -4.5426    1.4544   52.3406 H       1  ZINC000579444893    0.0800
     41 H41        -8.0302    2.3127   50.9168 H       1  ZINC000579444893    0.0600
     42 H42        -8.4723    2.8136   52.5777 H       1  ZINC000579444893    0.0900
     43 H43        -6.4525    5.4325   50.4816 H       1  ZINC000579444893    0.1100
     44 H44        -7.1532    3.9902   49.7088 H       1  ZINC000579444893    0.0500
     45 H45        -8.5909    5.5126   52.9575 H       1  ZINC000579444893    0.1500
     46 H46       -11.0673    6.3889   52.4945 H       1  ZINC000579444893    0.1800
     47 H47        -8.8580    5.9780   47.9366 H       1  ZINC000579444893    0.0800
     48 H48        -8.6645    4.2445   48.2912 H       1  ZINC000579444893    0.0800
     49 H49       -10.2842    4.9139   47.9804 H       1  ZINC000579444893    0.0900
     50 H50         0.1485    1.8391   47.5458 H       1  ZINC000579444893    0.0800
     51 H51         0.6824   -0.3514   46.6952 H       1  ZINC000579444893    0.0700
     52 H52        -1.0293   -0.6984   46.2828 H       1  ZINC000579444893    0.0700
     53 H53         0.9067    1.2418   44.9034 H       1  ZINC000579444893    0.0700
     54 H54        -0.1413   -0.0018   44.1518 H       1  ZINC000579444893    0.0700
     55 H55        -0.8636    2.6653   44.3538 H       1  ZINC000579444893    0.0600
     56 H56        -2.0501    1.3305   44.3154 H       1  ZINC000579444893    0.0600
     57 H57        -2.6655    1.8155   46.4623 H       1  ZINC000579444893    0.0600
     58 H58        -1.4791    3.1503   46.5008 H       1  ZINC000579444893    0.0600
@<TRIPOS>BOND
     1     1     2    1
     2     1    30    1
     3     1    31    1
     4     1    32    1
     5     2     3    1
     6     2     4    1
     7     2    25    1
     8     4     5   am
     9     4    33    1
    10     5     6    2
    11     5     7   am
    12     7     8    1
    13     7     9    1
    14     8    34    1
    15     8    35    1
    16     8    36    1
    17     9    10    1
    18     9    37    1
    19     9    38    1
    20    10    11    1
    21    10    17    1
    22    10    12    1
    23    12    13    1
    24    12    39    1
    25    12    40    1
    26    13    14    1
    27    13    15    1
    28    13    16    1
    29    16    17    1
    30    16    41    1
    31    16    42    1
    32    17    18    1
    33    18    19    1
    34    18    43    1
    35    18    44    1
    36    19    23    1
    37    19    20    2
    38    20    21    1
    39    20    45    1
    40    21    22    2
    41    21    46    1
    42    22    23    1
    43    23    24    1
    44    24    47    1
    45    24    48    1
    46    24    49    1
    47    25    29    1
    48    25    26    1
    49    25    50    1
    50    26    27    1
    51    26    51    1
    52    26    52    1
    53    27    28    1
    54    27    53    1
    55    27    54    1
    56    28    29    1
    57    28    55    1
    58    28    56    1
    59    29    57    1
    60    29    58    1
@<TRIPOS>SUBSTRUCTURE
     1 ZINC000579444893        1 TEMP              0 ****  ****    0 ROOT


##########                                Name:    ZINC000252489163
##########                DOCK_Rotatable_Bonds:                   6
##########                         Heavy_Atoms:                  25
##########                    Molecular_Weight:             379.403
##########                DOCK_Rotatable_Bonds:                   6
##########                       Formal_Charge:          0.00999963
##########                     HBond_Acceptors:                  10
##########                        HBond_Donors:                   2
##########                         Heavy_Atoms:                  25
##########                          Grid_Score:          -32.334709
##########                     Grid_vdw_energy:          -31.330013
##########                      Grid_es_energy:           -1.004697
##########           Internal_energy_repulsive:           22.352381

@<TRIPOS>MOLECULE
ZINC000252489163
 45 46 1 0 0
SMALL
USER_CHARGES


@<TRIPOS>ATOM
      1 C1         -3.9214    6.1471   52.4056 C.3     1  ZINC000252489163   -0.1100
      2 C2         -4.2455    4.7871   51.8430 C.ar    1  ZINC000252489163   -0.0600
      3 C3         -3.2337    3.9828   51.3570 C.ar    1  ZINC000252489163   -0.1300
      4 C4         -3.5331    2.7293   50.8391 C.ar    1  ZINC000252489163    0.1700
      5 N5         -2.5100    1.9115   50.3463 N.am    1  ZINC000252489163   -0.6800
      6 C6         -2.4709    1.5965   49.0364 C.2     1  ZINC000252489163    0.7100
      7 O7         -3.3246    2.0228   48.2830 O.2     1  ZINC000252489163   -0.5500
      8 N8         -1.4855    0.8089   48.5619 N.am    1  ZINC000252489163   -0.6200
      9 C9         -0.4469    0.2861   49.4600 C.3     1  ZINC000252489163    0.1000
     10 C10         0.9273    0.6513   48.8900 C.3     1  ZINC000252489163   -0.1400
     11 C11         1.0286    0.1443   47.4495 C.3     1  ZINC000252489163   -0.1300
     12 C12        -0.0447    0.8194   46.5926 C.3     1  ZINC000252489163    0.1400
     13 H13         0.0882    1.9007   46.6284 H       1  ZINC000252489163    0.0900
     14 N14         0.0736    0.3578   45.2072 N.am    1  ZINC000252489163   -1.1100
     15 S15        -1.2867    0.1374   44.2889 S.o2    1  ZINC000252489163    2.6100
     16 C16        -0.6617   -0.4271   42.6823 C.3     1  ZINC000252489163   -0.6700
     17 O17        -1.9879   -0.9090   44.9467 O.2     1  ZINC000252489163   -0.9500
     18 O18        -1.8482    1.4379   44.1766 O.2     1  ZINC000252489163   -0.9500
     19 C19        -1.4331    0.4516   47.1377 C.3     1  ZINC000252489163    0.1100
     20 C20        -4.8496    2.2891   50.8118 C.ar    1  ZINC000252489163   -0.1000
     21 C21        -5.8573    3.0986   51.2994 C.ar    1  ZINC000252489163   -0.1600
     22 C22        -7.2866    2.6216   51.2701 C.3     1  ZINC000252489163    0.5100
     23 F23        -7.8206    2.6692   52.5622 F       1  ZINC000252489163   -0.1700
     24 F24        -8.0363    3.4468   50.4248 F       1  ZINC000252489163   -0.1800
     25 F25        -7.3296    1.3061   50.7958 F       1  ZINC000252489163   -0.1800
     26 C26        -5.5553    4.3437   51.8191 C.ar    1  ZINC000252489163   -0.0900
     27 H27        -3.7197    6.0600   53.4732 H       1  ZINC000252489163    0.0800
     28 H28        -3.0426    6.5488   51.9013 H       1  ZINC000252489163    0.0700
     29 H29        -4.7677    6.8161   52.2490 H       1  ZINC000252489163    0.0700
     30 H30        -2.2107    4.3280   51.3794 H       1  ZINC000252489163    0.1300
     31 H31        -1.8289    1.5714   50.9474 H       1  ZINC000252489163    0.4100
     32 H32        -0.5619    0.7299   50.4490 H       1  ZINC000252489163    0.0800
     33 H33        -0.5369   -0.7979   49.5309 H       1  ZINC000252489163    0.0800
     34 H34         1.0510    1.7341   48.9041 H       1  ZINC000252489163    0.0700
     35 H35         1.7068    0.1875   49.4944 H       1  ZINC000252489163    0.0900
     36 H36         2.0146    0.3811   47.0497 H       1  ZINC000252489163    0.0800
     37 H37         0.8801   -0.9354   47.4332 H       1  ZINC000252489163    0.0800
     38 H38         0.9488    0.1814   44.8280 H       1  ZINC000252489163    0.4200
     39 H39        -0.1053   -1.3550   42.8145 H       1  ZINC000252489163    0.1300
     40 H40        -1.4995   -0.5990   42.0065 H       1  ZINC000252489163    0.1300
     41 H41        -0.0048    0.3335   42.2603 H       1  ZINC000252489163    0.1300
     42 H42        -1.6011   -0.6186   47.0174 H       1  ZINC000252489163    0.0800
     43 H43        -2.1978    1.0070   46.5946 H       1  ZINC000252489163    0.1100
     44 H44        -5.0858    1.3151   50.4093 H       1  ZINC000252489163    0.1800
     45 H45        -6.3448    4.9744   52.2001 H       1  ZINC000252489163    0.1300
@<TRIPOS>BOND
     1     1     2    1
     2     1    27    1
     3     1    28    1
     4     1    29    1
     5     2    26   ar
     6     2     3   ar
     7     3     4   ar
     8     3    30    1
     9     4     5    1
    10     4    20   ar
    11     5     6   am
    12     5    31    1
    13     6     7    2
    14     6     8   am
    15     8    19    1
    16     8     9    1
    17     9    10    1
    18     9    32    1
    19     9    33    1
    20    10    11    1
    21    10    34    1
    22    10    35    1
    23    11    12    1
    24    11    36    1
    25    11    37    1
    26    12    13    1
    27    12    14    1
    28    12    19    1
    29    14    15   am
    30    14    38    1
    31    15    16    1
    32    15    17    2
    33    15    18    2
    34    16    39    1
    35    16    40    1
    36    16    41    1
    37    19    42    1
    38    19    43    1
    39    20    21   ar
    40    20    44    1
    41    21    22    1
    42    21    26   ar
    43    22    23    1
    44    22    24    1
    45    22    25    1
    46    26    45    1
@<TRIPOS>SUBSTRUCTURE
     1 ZINC000252489163        1 TEMP              0 ****  ****    0 ROOT


##########                                Name:    ZINC001284642199
##########                DOCK_Rotatable_Bonds:                   8
##########                         Heavy_Atoms:                  25
##########                    Molecular_Weight:             346.516
##########                DOCK_Rotatable_Bonds:                   8
##########                       Formal_Charge:         -3.8743e-07
##########                     HBond_Acceptors:                   5
##########                        HBond_Donors:                   2
##########                         Heavy_Atoms:                  25
##########                          Grid_Score:          -32.330936
##########                     Grid_vdw_energy:          -31.646366
##########                      Grid_es_energy:           -0.684569
##########           Internal_energy_repulsive:           19.163172

@<TRIPOS>MOLECULE
ZINC001284642199
 59 60 1 0 0
SMALL
USER_CHARGES


@<TRIPOS>ATOM
      1 C1        -10.6140   -0.7437   52.6909 C.3     1  ZINC001284642199   -0.1100
      2 C2         -9.3047   -0.0054   52.5829 C.ar    1  ZINC001284642199   -0.1900
      3 C3         -8.1297   -0.6824   52.2963 C.ar    1  ZINC001284642199    0.1500
      4 N4         -6.9989   -0.0007   52.2087 N.ar    1  ZINC001284642199   -0.4900
      5 C5         -6.9816    1.3046   52.3903 C.ar    1  ZINC001284642199    0.3100
      6 C6         -5.6723    2.0429   52.2822 C.3     1  ZINC001284642199    0.1300
      7 N7         -5.5810    2.6877   50.9655 N.3     1  ZINC001284642199   -0.6800
      8 C8         -4.7943    3.9261   51.0392 C.3     1  ZINC001284642199    0.0500
      9 C9         -3.3407    3.5876   51.3760 C.3     1  ZINC001284642199    0.1600
     10 H10        -3.2967    2.6079   51.8519 H       1  ZINC001284642199    0.1000
     11 N11        -2.5459    3.5690   50.1455 N.am    1  ZINC001284642199   -0.7200
     12 C12        -2.2979    2.4006   49.5211 C.2     1  ZINC001284642199    0.5200
     13 O13        -2.7339    1.3648   49.9771 O.2     1  ZINC001284642199   -0.5300
     14 C14        -1.4788    2.3813   48.2563 C.3     1  ZINC001284642199   -0.1100
     15 H15        -1.3292    3.4021   47.9047 H       1  ZINC001284642199    0.0900
     16 C16        -0.1210    1.7347   48.5379 C.3     1  ZINC001284642199   -0.1000
     17 C17         0.7106    1.7150   47.2537 C.3     1  ZINC001284642199   -0.1100
     18 C18        -0.0256    0.9090   46.1816 C.3     1  ZINC001284642199   -0.0900
     19 H19        -0.1752   -0.1118   46.5333 H       1  ZINC001284642199    0.0700
     20 C20         0.8060    0.8895   44.8975 C.3     1  ZINC001284642199   -0.1500
     21 C21        -1.3834    1.5556   45.9001 C.3     1  ZINC001284642199   -0.1100
     22 C22        -2.2150    1.5753   47.1842 C.3     1  ZINC001284642199   -0.1100
     23 C23        -2.7790    4.6437   52.3300 C.3     1  ZINC001284642199   -0.0800
     24 C24        -3.0204    6.0375   51.7472 C.3     1  ZINC001284642199   -0.1400
     25 C25        -3.4784    4.5297   53.6860 C.3     1  ZINC001284642199   -0.1400
     26 C26        -1.2763    4.4198   52.5108 C.3     1  ZINC001284642199   -0.1300
     27 N27        -8.0781    1.9807   52.6691 N.ar    1  ZINC001284642199   -0.5100
     28 C28        -9.2464    1.3670   52.7672 C.ar    1  ZINC001284642199    0.1500
     29 H29       -10.7665   -1.0638   53.7217 H       1  ZINC001284642199    0.0800
     30 H30       -11.4285   -0.0845   52.3909 H       1  ZINC001284642199    0.0700
     31 H31       -10.5938   -1.6166   52.0386 H       1  ZINC001284642199    0.0700
     32 H32        -8.1369   -1.7520   52.1468 H       1  ZINC001284642199    0.1700
     33 H33        -4.8479    1.3397   52.4002 H       1  ZINC001284642199    0.1000
     34 H34        -5.6175    2.8015   53.0629 H       1  ZINC001284642199    0.0600
     35 H35        -6.4987    2.8645   50.5850 H       1  ZINC001284642199    0.3400
     36 H36        -5.2059    4.5724   51.8144 H       1  ZINC001284642199    0.0900
     37 H37        -4.8345    4.4399   50.0788 H       1  ZINC001284642199    0.0400
     38 H38        -2.1982    4.3975   49.7801 H       1  ZINC001284642199    0.3900
     39 H39        -0.2706    0.7139   48.8895 H       1  ZINC001284642199    0.0700
     40 H40         0.4035    2.3088   49.3016 H       1  ZINC001284642199    0.0700
     41 H41         1.6779    1.2544   47.4543 H       1  ZINC001284642199    0.0700
     42 H42         0.8602    2.7358   46.9021 H       1  ZINC001284642199    0.0600
     43 H43         1.7733    0.4288   45.0981 H       1  ZINC001284642199    0.0500
     44 H44         0.2815    0.3153   44.1337 H       1  ZINC001284642199    0.0500
     45 H45         0.9556    1.9102   44.5459 H       1  ZINC001284642199    0.0500
     46 H46        -1.2338    2.5765   45.5485 H       1  ZINC001284642199    0.0600
     47 H47        -1.9079    0.9816   45.1364 H       1  ZINC001284642199    0.0700
     48 H48        -2.3646    0.5544   47.5358 H       1  ZINC001284642199    0.0700
     49 H49        -3.1822    2.0359   46.9837 H       1  ZINC001284642199    0.0600
     50 H50        -4.0910    6.1970   51.6182 H       1  ZINC001284642199    0.0600
     51 H51        -2.6202    6.7899   52.4267 H       1  ZINC001284642199    0.0600
     52 H52        -2.5221    6.1187   50.7811 H       1  ZINC001284642199    0.0500
     53 H53        -3.3064    3.5367   54.1012 H       1  ZINC001284642199    0.0600
     54 H54        -3.0782    5.2821   54.3656 H       1  ZINC001284642199    0.0600
     55 H55        -4.5490    4.6892   53.5571 H       1  ZINC001284642199    0.0600
     56 H56        -0.7780    4.5010   51.5449 H       1  ZINC001284642199    0.0500
     57 H57        -0.8761    5.1722   53.1905 H       1  ZINC001284642199    0.0500
     58 H58        -1.1042    3.4269   52.9262 H       1  ZINC001284642199    0.0600
     59 H59       -10.1418    1.9275   52.9922 H       1  ZINC001284642199    0.1700
@<TRIPOS>BOND
     1     1     2    1
     2     1    29    1
     3     1    30    1
     4     1    31    1
     5     2    28   ar
     6     2     3   ar
     7     3     4   ar
     8     3    32    1
     9     4     5   ar
    10     5     6    1
    11     5    27   ar
    12     6     7    1
    13     6    33    1
    14     6    34    1
    15     7     8    1
    16     7    35    1
    17     8     9    1
    18     8    36    1
    19     8    37    1
    20     9    10    1
    21     9    11    1
    22     9    23    1
    23    11    12   am
    24    11    38    1
    25    12    13    2
    26    12    14    1
    27    14    15    1
    28    14    22    1
    29    14    16    1
    30    16    17    1
    31    16    39    1
    32    16    40    1
    33    17    18    1
    34    17    41    1
    35    17    42    1
    36    18    19    1
    37    18    20    1
    38    18    21    1
    39    20    43    1
    40    20    44    1
    41    20    45    1
    42    21    22    1
    43    21    46    1
    44    21    47    1
    45    22    48    1
    46    22    49    1
    47    23    24    1
    48    23    25    1
    49    23    26    1
    50    24    50    1
    51    24    51    1
    52    24    52    1
    53    25    53    1
    54    25    54    1
    55    25    55    1
    56    26    56    1
    57    26    57    1
    58    26    58    1
    59    27    28   ar
    60    28    59    1
@<TRIPOS>SUBSTRUCTURE
     1 ZINC001284642199        1 TEMP              0 ****  ****    0 ROOT


##########                                Name:    ZINC001327099466
##########                DOCK_Rotatable_Bonds:                   7
##########                         Heavy_Atoms:                  27
##########                    Molecular_Weight:             374.483
##########                DOCK_Rotatable_Bonds:                   7
##########                       Formal_Charge:           0.0199998
##########                     HBond_Acceptors:                   7
##########                        HBond_Donors:                   1
##########                         Heavy_Atoms:                  27
##########                          Grid_Score:          -32.329605
##########                     Grid_vdw_energy:          -31.511019
##########                      Grid_es_energy:           -0.818587
##########           Internal_energy_repulsive:           12.866748

@<TRIPOS>MOLECULE
ZINC001327099466
 57 60 1 0 0
SMALL
USER_CHARGES


@<TRIPOS>ATOM
      1 O1         -2.5564    2.0610   45.6985 O.2     1  ZINC001327099466   -0.4800
      2 C2         -1.7037    1.2371   45.9581 C.2     1  ZINC001327099466    0.5300
      3 N3         -1.4133    0.9494   47.2424 N.am    1  ZINC001327099466   -0.6000
      4 C4         -2.0907    1.6048   48.2765 C.2     1  ZINC001327099466    0.2900
      5 N5         -3.3935    1.7041   48.4037 N.2     1  ZINC001327099466   -0.3100
      6 N6         -3.6642    2.4337   49.5684 N.pl3   1  ZINC001327099466   -0.3500
      7 C7         -4.9937    2.7733   50.0815 C.3     1  ZINC001327099466    0.1700
      8 C8         -5.4752    1.6669   51.0223 C.3     1  ZINC001327099466   -0.1300
      9 C9         -6.8636    2.0217   51.5582 C.3     1  ZINC001327099466   -0.1200
     10 C10        -6.7927    3.3455   52.3220 C.3     1  ZINC001327099466   -0.1300
     11 C11        -6.3111    4.4518   51.3813 C.3     1  ZINC001327099466   -0.1200
     12 C12        -4.9227    4.0971   50.8453 C.3     1  ZINC001327099466   -0.1300
     13 C13        -2.4860    2.7686   50.1355 C.2     1  ZINC001327099466    0.0700
     14 C14        -1.4960    2.2664   49.3635 C.2     1  ZINC001327099466   -0.2700
     15 C15        -0.9807    0.5376   44.8543 C.2     1  ZINC001327099466    0.5100
     16 O16        -1.3669   -0.5457   44.4667 O.2     1  ZINC001327099466   -0.5100
     17 N17         0.1010    1.1092   44.2888 N.am    1  ZINC001327099466   -0.5700
     18 C18         0.8227    0.4332   43.2020 C.3     1  ZINC001327099466    0.0400
     19 C19         2.3048    0.3395   43.5779 C.3     1  ZINC001327099466   -0.1300
     20 C20         2.8325    1.7375   43.9086 C.3     1  ZINC001327099466   -0.1200
     21 C21         2.0655    2.3042   45.1055 C.3     1  ZINC001327099466    0.0800
     22 H22         2.1823    1.6385   45.9607 H       1  ZINC001327099466    0.0700
     23 O23         2.5800    3.5965   45.4333 O.3     1  ZINC001327099466   -0.3500
     24 C24         3.0963    3.6966   46.7620 C.3     1  ZINC001327099466    0.0600
     25 C25         3.5079    5.1248   47.1568 C.3     1  ZINC001327099466   -0.1600
     26 C26         2.0633    5.3214   47.6462 C.3     1  ZINC001327099466   -0.1400
     27 C27         2.0051    3.7971   47.8409 C.3     1  ZINC001327099466   -0.1400
     28 C28         0.5773    2.4227   44.7432 C.3     1  ZINC001327099466    0.0900
     29 H29        -0.7346    0.2882   47.4498 H       1  ZINC001327099466    0.4300
     30 H30        -5.6905    2.8711   49.2490 H       1  ZINC001327099466    0.1000
     31 H31        -5.5258    0.7239   50.4781 H       1  ZINC001327099466    0.0700
     32 H32        -4.7784    1.5692   51.8548 H       1  ZINC001327099466    0.0700
     33 H33        -7.5603    2.1194   50.7257 H       1  ZINC001327099466    0.0700
     34 H34        -7.2066    1.2334   52.2285 H       1  ZINC001327099466    0.0700
     35 H35        -7.7817    3.5982   52.7038 H       1  ZINC001327099466    0.0700
     36 H36        -6.0958    3.2477   53.1546 H       1  ZINC001327099466    0.0700
     37 H37        -7.0079    4.5496   50.5487 H       1  ZINC001327099466    0.0700
     38 H38        -6.2605    5.3950   51.9254 H       1  ZINC001327099466    0.0700
     39 H39        -4.2259    3.9994   51.6778 H       1  ZINC001327099466    0.0700
     40 H40        -4.5796    4.8854   50.1751 H       1  ZINC001327099466    0.0700
     41 H41        -2.3570    3.3341   51.0466 H       1  ZINC001327099466    0.1800
     42 H42        -0.4360    2.3619   49.5470 H       1  ZINC001327099466    0.1700
     43 H43         0.4172   -0.5688   43.0619 H       1  ZINC001327099466    0.1600
     44 H44         0.7149    1.0054   42.2806 H       1  ZINC001327099466    0.0700
     45 H45         2.4194   -0.3077   44.4474 H       1  ZINC001327099466    0.0700
     46 H46         2.8672   -0.0729   42.7402 H       1  ZINC001327099466    0.0900
     47 H47         3.8931    1.6770   44.1525 H       1  ZINC001327099466    0.0800
     48 H48         2.6949    2.3908   43.0469 H       1  ZINC001327099466    0.0800
     49 H49         3.8565    2.9461   46.9784 H       1  ZINC001327099466    0.0700
     50 H50         4.2483    5.1605   47.9559 H       1  ZINC001327099466    0.0900
     51 H51         3.7704    5.7544   46.3066 H       1  ZINC001327099466    0.0700
     52 H52         1.9904    5.8836   48.5772 H       1  ZINC001327099466    0.0700
     53 H53         1.3871    5.6892   46.8745 H       1  ZINC001327099466    0.0800
     54 H54         1.0544    3.3549   47.5429 H       1  ZINC001327099466    0.0800
     55 H55         2.3347    3.4699   48.8269 H       1  ZINC001327099466    0.0900
     56 H56         0.4523    3.1577   43.9481 H       1  ZINC001327099466    0.0900
     57 H57         0.0107    2.7316   45.6217 H       1  ZINC001327099466    0.1000
@<TRIPOS>BOND
     1     1     2    2
     2     2     3   am
     3     2    15    1
     4     3     4    1
     5     3    29    1
     6     4    14    1
     7     4     5    2
     8     5     6    1
     9     6     7    1
    10     6    13    1
    11     7    12    1
    12     7     8    1
    13     7    30    1
    14     8     9    1
    15     8    31    1
    16     8    32    1
    17     9    10    1
    18     9    33    1
    19     9    34    1
    20    10    11    1
    21    10    35    1
    22    10    36    1
    23    11    12    1
    24    11    37    1
    25    11    38    1
    26    12    39    1
    27    12    40    1
    28    13    14    2
    29    13    41    1
    30    14    42    1
    31    15    16    2
    32    15    17   am
    33    17    28    1
    34    17    18    1
    35    18    19    1
    36    18    43    1
    37    18    44    1
    38    19    20    1
    39    19    45    1
    40    19    46    1
    41    20    21    1
    42    20    47    1
    43    20    48    1
    44    21    22    1
    45    21    23    1
    46    21    28    1
    47    23    24    1
    48    24    27    1
    49    24    25    1
    50    24    49    1
    51    25    26    1
    52    25    50    1
    53    25    51    1
    54    26    27    1
    55    26    52    1
    56    26    53    1
    57    27    54    1
    58    27    55    1
    59    28    56    1
    60    28    57    1
@<TRIPOS>SUBSTRUCTURE
     1 ZINC001327099466        1 TEMP              0 ****  ****    0 ROOT


##########                                Name:    ZINC000866717058
##########                DOCK_Rotatable_Bonds:                   7
##########                         Heavy_Atoms:                  25
##########                    Molecular_Weight:             380.388
##########                DOCK_Rotatable_Bonds:                   7
##########                       Formal_Charge:                0.04
##########                     HBond_Acceptors:                  10
##########                        HBond_Donors:                   1
##########                         Heavy_Atoms:                  25
##########                          Grid_Score:          -32.320904
##########                     Grid_vdw_energy:          -31.425148
##########                      Grid_es_energy:           -0.895756
##########           Internal_energy_repulsive:            6.409917

@<TRIPOS>MOLECULE
ZINC000866717058
 44 45 1 0 0
SMALL
USER_CHARGES


@<TRIPOS>ATOM
      1 C1         -5.7975    3.3793   52.5033 C.3     1  ZINC000866717058   -0.1100
      2 C2         -6.3668    1.9973   52.3118 C.ar    1  ZINC000866717058    0.2400
      3 N3         -7.1466    1.4794   53.2373 N.ar    1  ZINC000866717058   -0.5500
      4 C4         -7.6694    0.2691   53.1122 C.ar    1  ZINC000866717058    0.3500
      5 O5         -8.4667   -0.2186   54.0934 O.3     1  ZINC000866717058   -0.2800
      6 C6         -9.8563    0.1068   54.0218 C.3     1  ZINC000866717058    0.0500
      7 H7        -10.0247    0.8030   53.2001 H       1  ZINC000866717058    0.1300
      8 C8        -10.6672   -1.1686   53.7840 C.3     1  ZINC000866717058   -0.1700
      9 C9        -10.2969    0.7536   55.3365 C.3     1  ZINC000866717058    0.4600
     10 F10        -9.8073    0.0046   56.4118 F       1  ZINC000866717058   -0.1700
     11 F11        -9.7921    2.0564   55.4074 F       1  ZINC000866717058   -0.1700
     12 F12       -11.6944    0.7913   55.3924 F       1  ZINC000866717058   -0.1700
     13 C13        -7.4122   -0.5087   51.9877 C.ar    1  ZINC000866717058   -0.1900
     14 C14        -6.5999   -0.0066   50.9916 C.ar    1  ZINC000866717058    0.0000
     15 C15        -6.0669    1.2807   51.1524 C.ar    1  ZINC000866717058   -0.2300
     16 C16        -5.1926    1.8643   50.1161 C.2     1  ZINC000866717058    0.5800
     17 O17        -5.6604    2.6042   49.2722 O.2     1  ZINC000866717058   -0.5200
     18 N18        -3.8758    1.5769   50.1051 N.am    1  ZINC000866717058   -0.7400
     19 C19        -3.0086    2.1548   49.0755 C.3     1  ZINC000866717058    0.1400
     20 C20        -1.5942    1.5908   49.2248 C.3     1  ZINC000866717058   -0.5700
     21 H21        -1.2097    1.7750   50.2280 H       1  ZINC000866717058    0.1500
     22 C22        -1.5683    0.0759   48.8952 C.3     1  ZINC000866717058   -0.1100
     23 C23        -0.1032   -0.2836   48.5916 C.3     1  ZINC000866717058   -0.1200
     24 C24         0.4724    0.7662   47.6205 C.3     1  ZINC000866717058   -0.5900
     25 S25        -0.4743    2.2991   47.9586 S.o2    1  ZINC000866717058    2.3700
     26 O26        -1.2311    2.6486   46.8078 O.2     1  ZINC000866717058   -0.9200
     27 O27         0.3826    3.2582   48.5629 O.2     1  ZINC000866717058   -0.9300
     28 H28        -6.4217    4.1049   51.9818 H       1  ZINC000866717058    0.0900
     29 H29        -5.7735    3.6183   53.5665 H       1  ZINC000866717058    0.0700
     30 H30        -4.7854    3.4145   52.1000 H       1  ZINC000866717058    0.1100
     31 H31       -11.7272   -0.9204   53.7295 H       1  ZINC000866717058    0.0900
     32 H32       -10.3534   -1.6294   52.8474 H       1  ZINC000866717058    0.0900
     33 H33       -10.4989   -1.8647   54.6057 H       1  ZINC000866717058    0.0800
     34 H34        -7.8432   -1.4947   51.8955 H       1  ZINC000866717058    0.1600
     35 H35        -6.3833   -0.5888   50.1082 H       1  ZINC000866717058    0.1500
     36 H36        -3.5025    0.9876   50.7790 H       1  ZINC000866717058    0.4000
     37 H37        -3.3980    1.9028   48.0891 H       1  ZINC000866717058    0.1000
     38 H38        -2.9815    3.2384   49.1894 H       1  ZINC000866717058    0.1000
     39 H39        -1.9240   -0.4984   49.7506 H       1  ZINC000866717058    0.1100
     40 H40        -2.1907   -0.1272   48.0238 H       1  ZINC000866717058    0.0900
     41 H41         0.4736   -0.2823   49.5165 H       1  ZINC000866717058    0.0900
     42 H42        -0.0556   -1.2715   48.1336 H       1  ZINC000866717058    0.1000
     43 H43         1.5318    0.9267   47.8208 H       1  ZINC000866717058    0.1400
     44 H44         0.3256    0.4479   46.5884 H       1  ZINC000866717058    0.1400
@<TRIPOS>BOND
     1     1     2    1
     2     1    28    1
     3     1    29    1
     4     1    30    1
     5     2    15   ar
     6     2     3   ar
     7     3     4   ar
     8     4     5    1
     9     4    13   ar
    10     5     6    1
    11     6     7    1
    12     6     8    1
    13     6     9    1
    14     8    31    1
    15     8    32    1
    16     8    33    1
    17     9    10    1
    18     9    11    1
    19     9    12    1
    20    13    14   ar
    21    13    34    1
    22    14    15   ar
    23    14    35    1
    24    15    16    1
    25    16    17    2
    26    16    18   am
    27    18    19    1
    28    18    36    1
    29    19    20    1
    30    19    37    1
    31    19    38    1
    32    20    21    1
    33    20    25    1
    34    20    22    1
    35    22    23    1
    36    22    39    1
    37    22    40    1
    38    23    24    1
    39    23    41    1
    40    23    42    1
    41    24    25    1
    42    24    43    1
    43    24    44    1
    44    25    26    2
    45    25    27    2
@<TRIPOS>SUBSTRUCTURE
     1 ZINC000866717058        1 TEMP              0 ****  ****    0 ROOT


##########                                Name:    ZINC001000186632
##########                DOCK_Rotatable_Bonds:                   7
##########                         Heavy_Atoms:                  23
##########                    Molecular_Weight:             342.379
##########                DOCK_Rotatable_Bonds:                   7
##########                       Formal_Charge:          -0.0100001
##########                     HBond_Acceptors:                  11
##########                        HBond_Donors:                   2
##########                         Heavy_Atoms:                  23
##########                          Grid_Score:          -32.308147
##########                     Grid_vdw_energy:          -32.702038
##########                      Grid_es_energy:            0.393890
##########           Internal_energy_repulsive:            7.060639

@<TRIPOS>MOLECULE
ZINC001000186632
 41 43 1 0 0
SMALL
USER_CHARGES


@<TRIPOS>ATOM
      1 O1         -7.2685    2.3262   51.0796 O.2     1  ZINC001000186632   -0.5200
      2 C2         -6.4068    2.0822   51.8975 C.2     1  ZINC001000186632    0.5300
      3 C3         -6.7614    1.3646   53.1743 C.3     1  ZINC001000186632   -0.0500
      4 C4         -7.9581    0.4798   52.9375 C.2     1  ZINC001000186632    0.2400
      5 N5         -7.9172   -0.7543   52.5085 N.2     1  ZINC001000186632   -0.3000
      6 N6         -9.2464   -1.2013   52.4313 N.pl3   1  ZINC001000186632   -0.4800
      7 C7        -10.0151   -0.1737   52.8315 C.2     1  ZINC001000186632    0.2700
      8 N8         -9.2290    0.8265   53.1371 N.2     1  ZINC001000186632   -0.5400
      9 N9         -5.1311    2.4478   51.6620 N.am    1  ZINC001000186632   -0.7100
     10 C10        -4.7864    3.1454   50.4207 C.3     1  ZINC001000186632    0.1100
     11 C11        -3.3844    3.7813   50.4360 C.3     1  ZINC001000186632    0.1000
     12 N12        -2.9077    2.5017   49.8762 N.am    1  ZINC001000186632   -0.6500
     13 C13        -1.7263    1.8530   49.8749 C.2     1  ZINC001000186632    0.5100
     14 O14        -0.7654    2.3419   50.4306 O.2     1  ZINC001000186632   -0.5100
     15 C15        -1.5992    0.5202   49.1832 C.3     1  ZINC001000186632    0.1500
     16 N16        -1.3494    0.7330   47.7554 N.am    1  ZINC001000186632   -0.9800
     17 C17        -1.9203    1.8012   46.9213 C.3     1  ZINC001000186632    0.0800
     18 C18        -0.9522    2.1534   45.7757 C.3     1  ZINC001000186632   -0.1300
     19 C19        -0.4946    0.7734   45.2213 C.3     1  ZINC001000186632   -0.6000
     20 S20        -0.3580   -0.1885   46.7770 S.o2    1  ZINC001000186632    2.5700
     21 O21         0.9410   -0.0733   47.3415 O.2     1  ZINC001000186632   -0.9400
     22 O22        -1.0178   -1.4422   46.6669 O.2     1  ZINC001000186632   -0.9600
     23 C23        -4.2441    2.2176   49.3184 C.3     1  ZINC001000186632    0.0900
     24 H24        -5.9167    0.7550   53.4952 H       1  ZINC001000186632    0.1300
     25 H25        -6.9971    2.0951   53.9482 H       1  ZINC001000186632    0.1200
     26 H26        -9.5495   -2.0773   52.1456 H       1  ZINC001000186632    0.4400
     27 H27       -11.0934   -0.1748   52.8933 H       1  ZINC001000186632    0.2200
     28 H28        -4.4413    2.2492   52.3144 H       1  ZINC001000186632    0.4100
     29 H29        -5.5721    3.8195   50.0797 H       1  ZINC001000186632    0.1200
     30 H30        -3.2776    4.6257   49.7550 H       1  ZINC001000186632    0.1000
     31 H31        -3.0076    3.9904   51.4371 H       1  ZINC001000186632    0.0900
     32 H32        -0.7696   -0.0372   49.6180 H       1  ZINC001000186632    0.1100
     33 H33        -2.5228   -0.0446   49.3101 H       1  ZINC001000186632    0.1100
     34 H34        -2.8685    1.4646   46.5021 H       1  ZINC001000186632    0.0800
     35 H35        -2.0915    2.6859   47.5345 H       1  ZINC001000186632    0.0900
     36 H36        -1.4677    2.7229   45.0025 H       1  ZINC001000186632    0.1100
     37 H37        -0.0981    2.7131   46.1570 H       1  ZINC001000186632    0.1000
     38 H38        -1.2458    0.3478   44.5561 H       1  ZINC001000186632    0.1400
     39 H39         0.4717    0.8503   44.7227 H       1  ZINC001000186632    0.1400
     40 H40        -4.5538    1.1783   49.4274 H       1  ZINC001000186632    0.0900
     41 H41        -4.3899    2.6026   48.3091 H       1  ZINC001000186632    0.1100
@<TRIPOS>BOND
     1     1     2    2
     2     2     3    1
     3     2     9   am
     4     3     4    1
     5     3    24    1
     6     3    25    1
     7     4     8    1
     8     4     5    2
     9     5     6    1
    10     6     7    1
    11     6    26    1
    12     7     8    2
    13     7    27    1
    14     9    10    1
    15     9    28    1
    16    10    23    1
    17    10    11    1
    18    10    29    1
    19    11    12    1
    20    11    30    1
    21    11    31    1
    22    12    13   am
    23    12    23    1
    24    13    14    2
    25    13    15    1
    26    15    16    1
    27    15    32    1
    28    15    33    1
    29    16    20   am
    30    16    17    1
    31    17    18    1
    32    17    34    1
    33    17    35    1
    34    18    19    1
    35    18    36    1
    36    18    37    1
    37    19    20    1
    38    19    38    1
    39    19    39    1
    40    20    21    2
    41    20    22    2
    42    23    40    1
    43    23    41    1
@<TRIPOS>SUBSTRUCTURE
     1 ZINC001000186632        1 TEMP              0 ****  ****    0 ROOT


##########                                Name:    ZINC000558213406
##########                DOCK_Rotatable_Bonds:                   8
##########                         Heavy_Atoms:                  30
##########                    Molecular_Weight:               408.5
##########                DOCK_Rotatable_Bonds:                   8
##########                       Formal_Charge:          -0.0299987
##########                     HBond_Acceptors:                   7
##########                        HBond_Donors:                   2
##########                         Heavy_Atoms:                  30
##########                          Grid_Score:          -32.302959
##########                     Grid_vdw_energy:          -31.006168
##########                      Grid_es_energy:           -1.296791
##########           Internal_energy_repulsive:           12.918582

@<TRIPOS>MOLECULE
ZINC000558213406
 58 61 1 0 0
SMALL
USER_CHARGES


@<TRIPOS>ATOM
      1 O1         -4.0331    1.3875   49.4440 O.2     1  ZINC000558213406   -0.5700
      2 C2         -3.5936    2.0637   50.3541 C.2     1  ZINC000558213406    0.7100
      3 N3         -2.2918    2.4123   50.3668 N.am    1  ZINC000558213406   -0.6800
      4 C4         -1.4434    1.9906   49.3342 C.ar    1  ZINC000558213406    0.1700
      5 C5         -1.1754    0.6389   49.1639 C.ar    1  ZINC000558213406   -0.1300
      6 C6         -0.3398    0.2239   48.1459 C.ar    1  ZINC000558213406   -0.1100
      7 C7          0.2324    1.1574   47.2937 C.ar    1  ZINC000558213406    0.0600
      8 O8          1.0554    0.7482   46.2918 O.3     1  ZINC000558213406   -0.2500
      9 C9          0.5025    0.4884   45.0779 C.ar    1  ZINC000558213406    0.0700
     10 C10        -0.8608    0.2352   44.9631 C.ar    1  ZINC000558213406   -0.1500
     11 C11        -1.3785   -0.0246   43.7043 C.ar    1  ZINC000558213406   -0.1300
     12 C12        -0.5308   -0.0236   42.6126 C.ar    1  ZINC000558213406    0.0600
     13 N13         0.7575    0.2198   42.7557 N.ar    1  ZINC000558213406   -0.4500
     14 C14         1.2885    0.4774   43.9343 C.ar    1  ZINC000558213406    0.0800
     15 C15        -0.0355    2.5081   47.4631 C.ar    1  ZINC000558213406   -0.1000
     16 C16        -0.8751    2.9238   48.4775 C.ar    1  ZINC000558213406   -0.1100
     17 N17        -4.4095    2.4692   51.3472 N.am    1  ZINC000558213406   -0.7300
     18 C18        -5.8247    2.0902   51.3334 C.3     1  ZINC000558213406    0.1500
     19 H19        -5.9702    1.1688   50.7695 H       1  ZINC000558213406    0.1100
     20 C20        -6.3668    1.9404   52.7794 C.3     1  ZINC000558213406   -0.1400
     21 C21        -7.8754    2.2290   52.5773 C.3     1  ZINC000558213406    0.1000
     22 N22        -7.9229    3.2897   51.5544 N.am    1  ZINC000558213406   -0.6200
     23 C23        -8.9299    4.1684   51.3802 C.2     1  ZINC000558213406    0.5400
     24 O24        -8.8618    5.0025   50.5025 O.2     1  ZINC000558213406   -0.5300
     25 C25       -10.1404    4.1145   52.2764 C.3     1  ZINC000558213406   -0.1000
     26 C26       -10.9492    5.4036   52.1188 C.3     1  ZINC000558213406   -0.1100
     27 C27       -12.1782    5.3489   53.0286 C.3     1  ZINC000558213406   -0.1200
     28 C28       -13.0471    4.1509   52.6405 C.3     1  ZINC000558213406   -0.1200
     29 C29       -12.2381    2.8618   52.7979 C.3     1  ZINC000558213406   -0.1200
     30 C30       -11.0092    2.9166   51.8882 C.3     1  ZINC000558213406   -0.1100
     31 C31        -6.6890    3.2287   50.7518 C.3     1  ZINC000558213406    0.1000
     32 H32        -1.9421    2.9551   51.0906 H       1  ZINC000558213406    0.4100
     33 H33        -1.6201   -0.0876   49.8277 H       1  ZINC000558213406    0.1300
     34 H34        -0.1313   -0.8275   48.0134 H       1  ZINC000558213406    0.1400
     35 H35        -1.4997    0.2407   45.8338 H       1  ZINC000558213406    0.1400
     36 H36        -2.4321   -0.2256   43.5777 H       1  ZINC000558213406    0.1400
     37 H37        -0.9287   -0.2254   41.6290 H       1  ZINC000558213406    0.1600
     38 H38         2.3479    0.6724   44.0121 H       1  ZINC000558213406    0.1700
     39 H39         0.4101    3.2343   46.7993 H       1  ZINC000558213406    0.1400
     40 H40        -1.0838    3.9752   48.6091 H       1  ZINC000558213406    0.1500
     41 H41        -4.0598    3.0120   52.0710 H       1  ZINC000558213406    0.4000
     42 H42        -6.2093    0.9286   53.1528 H       1  ZINC000558213406    0.0900
     43 H43        -5.9141    2.6756   53.4445 H       1  ZINC000558213406    0.0800
     44 H44        -8.3882    1.3355   52.2214 H       1  ZINC000558213406    0.0700
     45 H45        -8.3226    2.5789   53.5076 H       1  ZINC000558213406    0.0800
     46 H46        -9.8205    4.0106   53.3132 H       1  ZINC000558213406    0.0900
     47 H47       -10.3302    6.2572   52.3954 H       1  ZINC000558213406    0.0600
     48 H48       -11.2690    5.5075   51.0820 H       1  ZINC000558213406    0.0700
     49 H49       -11.8583    5.2450   54.0654 H       1  ZINC000558213406    0.0600
     50 H50       -12.7544    6.2672   52.9164 H       1  ZINC000558213406    0.0700
     51 H51       -13.9226    4.1120   53.2886 H       1  ZINC000558213406    0.0600
     52 H52       -13.3669    4.2548   51.6036 H       1  ZINC000558213406    0.0600
     53 H53       -11.9184    2.7579   53.8348 H       1  ZINC000558213406    0.0600
     54 H54       -12.8573    2.0084   52.5214 H       1  ZINC000558213406    0.0700
     55 H55       -11.3290    3.0204   50.8513 H       1  ZINC000558213406    0.0800
     56 H56       -10.4329    1.9982   52.0004 H       1  ZINC000558213406    0.0600
     57 H57        -6.1516    4.1740   50.8258 H       1  ZINC000558213406    0.0800
     58 H58        -6.9341    3.0197   49.7104 H       1  ZINC000558213406    0.0800
@<TRIPOS>BOND
     1     1     2    2
     2     2     3   am
     3     2    17   am
     4     3     4    1
     5     3    32    1
     6     4    16   ar
     7     4     5   ar
     8     5     6   ar
     9     5    33    1
    10     6     7   ar
    11     6    34    1
    12     7     8    1
    13     7    15   ar
    14     8     9    1
    15     9    14   ar
    16     9    10   ar
    17    10    11   ar
    18    10    35    1
    19    11    12   ar
    20    11    36    1
    21    12    13   ar
    22    12    37    1
    23    13    14   ar
    24    14    38    1
    25    15    16   ar
    26    15    39    1
    27    16    40    1
    28    17    18    1
    29    17    41    1
    30    18    19    1
    31    18    31    1
    32    18    20    1
    33    20    21    1
    34    20    42    1
    35    20    43    1
    36    21    22    1
    37    21    44    1
    38    21    45    1
    39    22    23   am
    40    22    31    1
    41    23    24    2
    42    23    25    1
    43    25    30    1
    44    25    26    1
    45    25    46    1
    46    26    27    1
    47    26    47    1
    48    26    48    1
    49    27    28    1
    50    27    49    1
    51    27    50    1
    52    28    29    1
    53    28    51    1
    54    28    52    1
    55    29    30    1
    56    29    53    1
    57    29    54    1
    58    30    55    1
    59    30    56    1
    60    31    57    1
    61    31    58    1
@<TRIPOS>SUBSTRUCTURE
     1 ZINC000558213406        1 TEMP              0 ****  ****    0 ROOT


##########                                Name:    ZINC000530457945
##########                DOCK_Rotatable_Bonds:                   4
##########                         Heavy_Atoms:                  25
##########                    Molecular_Weight:             355.827
##########                DOCK_Rotatable_Bonds:                   4
##########                       Formal_Charge:           0.0199997
##########                     HBond_Acceptors:                   7
##########                        HBond_Donors:                   1
##########                         Heavy_Atoms:                  25
##########                          Grid_Score:          -32.293171
##########                     Grid_vdw_energy:          -32.027187
##########                      Grid_es_energy:           -0.265985
##########           Internal_energy_repulsive:           34.923740

@<TRIPOS>MOLECULE
ZINC000530457945
 43 46 1 0 0
SMALL
USER_CHARGES


@<TRIPOS>ATOM
      1 C1         -1.1879    2.3089   45.6616 C.3     1  ZINC000530457945   -0.1700
      2 C2         -1.6909    1.2282   46.6207 C.3     1  ZINC000530457945    0.0900
      3 H3         -2.7777    1.2720   46.6913 H       1  ZINC000530457945    0.1100
      4 C4         -1.0654    1.4327   48.0166 C.3     1  ZINC000530457945   -0.1200
      5 H5         -0.1349    1.9955   47.9433 H       1  ZINC000530457945    0.1100
      6 C6         -2.0347    2.1272   48.9382 C.2     1  ZINC000530457945    0.5300
      7 O7         -1.8703    3.2945   49.2231 O.2     1  ZINC000530457945   -0.4700
      8 N8         -3.0844    1.4509   49.4456 N.am    1  ZINC000530457945   -0.6200
      9 C9         -3.9818    2.0941   50.3009 C.2     1  ZINC000530457945    0.4800
     10 N10        -5.2611    1.8020   50.4204 N.2     1  ZINC000530457945   -0.3000
     11 N11        -5.7954    2.6769   51.3771 N.pl3   1  ZINC000530457945   -0.2800
     12 C12        -7.0412    2.8352   51.8968 C.2     1  ZINC000530457945    0.1400
     13 C13        -7.2815    3.7836   52.8317 C.2     1  ZINC000530457945   -0.0800
     14 Cl14       -8.8793    3.9709   53.4840 Cl      1  ZINC000530457945   -0.0200
     15 C15        -6.2425    4.6155   53.2757 C.2     1  ZINC000530457945   -0.0500
     16 C16        -4.9910    4.4627   52.7599 C.2     1  ZINC000530457945   -0.0900
     17 C17        -4.7634    3.4712   51.7890 C.2     1  ZINC000530457945    0.3000
     18 N18        -3.6763    3.0917   51.1245 N.2     1  ZINC000530457945   -0.5500
     19 C19        -0.7929   -0.0182   48.4934 C.3     1  ZINC000530457945   -0.1200
     20 C20        -0.3958   -0.7140   47.1675 C.3     1  ZINC000530457945    0.0400
     21 N21        -1.2726   -0.1019   46.1415 N.3     1  ZINC000530457945   -0.4900
     22 C22        -0.6146   -0.0071   44.9131 C.ar    1  ZINC000530457945    0.1000
     23 C23        -1.2856   -0.3209   43.7380 C.ar    1  ZINC000530457945   -0.1600
     24 C24        -0.6321   -0.2255   42.5250 C.ar    1  ZINC000530457945   -0.1100
     25 C25         0.6888    0.1812   42.4796 C.ar    1  ZINC000530457945   -0.1300
     26 C26         1.3597    0.4942   43.6475 C.ar    1  ZINC000530457945   -0.1100
     27 C27         0.7106    0.4067   44.8633 C.ar    1  ZINC000530457945   -0.1000
     28 H28        -1.5331    2.0876   44.6517 H       1  ZINC000530457945    0.0700
     29 H29        -1.5741    3.2795   45.9731 H       1  ZINC000530457945    0.0600
     30 H30        -0.0982    2.3295   45.6768 H       1  ZINC000530457945    0.0600
     31 H31        -3.2166    0.5177   49.2167 H       1  ZINC000530457945    0.4300
     32 H32        -7.8464    2.1988   51.5604 H       1  ZINC000530457945    0.1800
     33 H33        -6.4339    5.3728   54.0215 H       1  ZINC000530457945    0.1600
     34 H34        -4.1825    5.0966   53.0925 H       1  ZINC000530457945    0.1700
     35 H35         0.0280   -0.0461   49.2100 H       1  ZINC000530457945    0.0900
     36 H36        -1.6927   -0.4661   48.9152 H       1  ZINC000530457945    0.0900
     37 H37         0.6520   -0.5215   46.9370 H       1  ZINC000530457945    0.0700
     38 H38        -0.5805   -1.7862   47.2316 H       1  ZINC000530457945    0.0900
     39 H39        -2.3169   -0.6392   43.7728 H       1  ZINC000530457945    0.1200
     40 H40        -1.1532   -0.4693   41.6109 H       1  ZINC000530457945    0.1200
     41 H41         1.1977    0.2542   41.5297 H       1  ZINC000530457945    0.1200
     42 H42         2.3913    0.8115   43.6085 H       1  ZINC000530457945    0.1300
     43 H43         1.2350    0.6515   45.7751 H       1  ZINC000530457945    0.1300
@<TRIPOS>BOND
     1     1     2    1
     2     1    28    1
     3     1    29    1
     4     1    30    1
     5     2     3    1
     6     2    21    1
     7     2     4    1
     8     4     5    1
     9     4     6    1
    10     4    19    1
    11     6     7    2
    12     6     8   am
    13     8     9    1
    14     8    31    1
    15     9    18    1
    16     9    10    2
    17    10    11    1
    18    11    17    1
    19    11    12    1
    20    12    13    2
    21    12    32    1
    22    13    14    1
    23    13    15    1
    24    15    16    2
    25    15    33    1
    26    16    17    1
    27    16    34    1
    28    17    18    2
    29    19    20    1
    30    19    35    1
    31    19    36    1
    32    20    21    1
    33    20    37    1
    34    20    38    1
    35    21    22    1
    36    22    27   ar
    37    22    23   ar
    38    23    24   ar
    39    23    39    1
    40    24    25   ar
    41    24    40    1
    42    25    26   ar
    43    25    41    1
    44    26    27   ar
    45    26    42    1
    46    27    43    1
@<TRIPOS>SUBSTRUCTURE
     1 ZINC000530457945        1 TEMP              0 ****  ****    0 ROOT


##########                                Name:    ZINC000962855438
##########                DOCK_Rotatable_Bonds:                   7
##########                         Heavy_Atoms:                  27
##########                    Molecular_Weight:             370.448
##########                DOCK_Rotatable_Bonds:                   7
##########                       Formal_Charge:           0.0300005
##########                     HBond_Acceptors:                   6
##########                        HBond_Donors:                   2
##########                         Heavy_Atoms:                  27
##########                          Grid_Score:          -32.284599
##########                     Grid_vdw_energy:          -30.355629
##########                      Grid_es_energy:           -1.928972
##########           Internal_energy_repulsive:           11.948386

@<TRIPOS>MOLECULE
ZINC000962855438
 53 56 1 0 0
SMALL
USER_CHARGES


@<TRIPOS>ATOM
      1 C1         -6.8502    4.1545   57.4000 C.3     1  ZINC000962855438   -0.1100
      2 C2         -7.3948    2.7669   57.1777 C.2     1  ZINC000962855438   -0.1700
      3 C3         -7.2168    2.1069   55.8752 C.2     1  ZINC000962855438    0.5600
      4 O4         -7.6539    0.9862   55.6966 O.2     1  ZINC000962855438   -0.5400
      5 N5         -6.5692    2.7442   54.8797 N.am    1  ZINC000962855438   -0.7100
      6 C6         -6.3904    2.0862   53.5830 C.3     1  ZINC000962855438    0.1500
      7 H7         -6.1553    1.0298   53.7125 H       1  ZINC000962855438    0.1200
      8 C8         -5.3004    2.7990   52.7443 C.3     1  ZINC000962855438    0.1000
      9 N9         -5.6334    2.4805   51.3439 N.am    1  ZINC000962855438   -0.6100
     10 C10        -4.7667    2.4768   50.3118 C.2     1  ZINC000962855438    0.5800
     11 O11        -5.1538    2.1965   49.1938 O.2     1  ZINC000962855438   -0.5200
     12 C12        -3.3481    2.8129   50.5386 C.ar    1  ZINC000962855438   -0.1500
     13 C13        -3.0064    3.9999   51.1867 C.ar    1  ZINC000962855438   -0.0600
     14 C14        -1.6820    4.3170   51.3992 C.ar    1  ZINC000962855438   -0.1500
     15 C15        -0.6858    3.4569   50.9650 C.ar    1  ZINC000962855438   -0.0500
     16 C16        -1.0118    2.2839   50.3216 C.ar    1  ZINC000962855438   -0.1800
     17 C17        -2.3381    1.9341   50.1068 C.ar    1  ZINC000962855438    0.1600
     18 O18        -2.4365    0.7335   49.4785 O.3     1  ZINC000962855438   -0.2800
     19 C19        -1.1827    0.4250   48.8461 C.3     1  ZINC000962855438    0.0700
     20 H20        -1.1620    0.8037   47.8243 H       1  ZINC000962855438    0.0900
     21 C21        -0.9203   -1.0822   48.8689 C.3     1  ZINC000962855438   -0.1500
     22 C22        -0.1598    1.1744   49.7353 C.3     1  ZINC000962855438   -0.1100
     23 C23        -7.0672    2.1666   51.2599 C.3     1  ZINC000962855438    0.0700
     24 C24        -7.6441    2.2712   52.6879 C.3     1  ZINC000962855438    0.0900
     25 H25        -8.3696    1.4782   52.8698 H       1  ZINC000962855438    0.0900
     26 O26        -8.2362    3.5542   52.9012 O.3     1  ZINC000962855438   -0.5600
     27 C27        -8.0361    2.1392   58.1591 C.2     1  ZINC000962855438   -0.0600
     28 C28        -8.4234    2.4513   59.5892 C.3     1  ZINC000962855438   -0.1000
     29 C29        -8.4166    0.9365   59.8481 C.3     1  ZINC000962855438   -0.1400
     30 C30        -8.7104    0.7962   58.3432 C.3     1  ZINC000962855438   -0.1100
     31 H31        -7.6079    4.8897   57.1290 H       1  ZINC000962855438    0.0700
     32 H32        -6.5845    4.2765   58.4500 H       1  ZINC000962855438    0.0700
     33 H33        -5.9645    4.3005   56.7816 H       1  ZINC000962855438    0.0700
     34 H34        -6.2215    3.6385   55.0218 H       1  ZINC000962855438    0.4100
     35 H35        -5.3394    3.8759   52.9080 H       1  ZINC000962855438    0.0800
     36 H36        -4.3134    2.4116   52.9970 H       1  ZINC000962855438    0.0900
     37 H37        -3.7818    4.6725   51.5226 H       1  ZINC000962855438    0.1400
     38 H38        -1.4207    5.2357   51.9035 H       1  ZINC000962855438    0.1400
     39 H39         0.3513    3.7081   51.1317 H       1  ZINC000962855438    0.1300
     40 H40        -1.7054   -1.5962   48.3143 H       1  ZINC000962855438    0.0700
     41 H41         0.0455   -1.2899   48.4083 H       1  ZINC000962855438    0.0800
     42 H42        -0.9140   -1.4344   49.9005 H       1  ZINC000962855438    0.0700
     43 H43         0.6504    1.5868   49.1342 H       1  ZINC000962855438    0.1000
     44 H44         0.2297    0.5213   50.5162 H       1  ZINC000962855438    0.1000
     45 H45        -7.5654    2.8816   50.6051 H       1  ZINC000962855438    0.0800
     46 H46        -7.2035    1.1545   50.8789 H       1  ZINC000962855438    0.0800
     47 H47        -7.6135    4.2908   52.8342 H       1  ZINC000962855438    0.3900
     48 H48        -7.6539    2.9911   60.1411 H       1  ZINC000962855438    0.0900
     49 H49        -9.4099    2.9051   59.6843 H       1  ZINC000962855438    0.1000
     50 H50        -7.4447    0.5457   60.1493 H       1  ZINC000962855438    0.0900
     51 H51        -9.2311    0.5954   60.4870 H       1  ZINC000962855438    0.0800
     52 H52        -9.7740    0.8018   58.1046 H       1  ZINC000962855438    0.1000
     53 H53        -8.1745   -0.0262   57.8694 H       1  ZINC000962855438    0.0800
@<TRIPOS>BOND
     1     1     2    1
     2     1    31    1
     3     1    32    1
     4     1    33    1
     5     2     3    1
     6     2    27    2
     7     3     4    2
     8     3     5   am
     9     5     6    1
    10     5    34    1
    11     6     7    1
    12     6    24    1
    13     6     8    1
    14     8     9    1
    15     8    35    1
    16     8    36    1
    17     9    10   am
    18     9    23    1
    19    10    11    2
    20    10    12    1
    21    12    17   ar
    22    12    13   ar
    23    13    14   ar
    24    13    37    1
    25    14    15   ar
    26    14    38    1
    27    15    16   ar
    28    15    39    1
    29    16    22    1
    30    16    17   ar
    31    17    18    1
    32    18    19    1
    33    19    20    1
    34    19    21    1
    35    19    22    1
    36    21    40    1
    37    21    41    1
    38    21    42    1
    39    22    43    1
    40    22    44    1
    41    23    24    1
    42    23    45    1
    43    23    46    1
    44    24    25    1
    45    24    26    1
    46    26    47    1
    47    27    30    1
    48    27    28    1
    49    28    29    1
    50    28    48    1
    51    28    49    1
    52    29    30    1
    53    29    50    1
    54    29    51    1
    55    30    52    1
    56    30    53    1
@<TRIPOS>SUBSTRUCTURE
     1 ZINC000962855438        1 TEMP              0 ****  ****    0 ROOT


##########                                Name:    ZINC001058079801
##########                DOCK_Rotatable_Bonds:                   7
##########                         Heavy_Atoms:                  24
##########                    Molecular_Weight:             349.457
##########                DOCK_Rotatable_Bonds:                   7
##########                       Formal_Charge:           0.0200001
##########                     HBond_Acceptors:                   8
##########                        HBond_Donors:                   0
##########                         Heavy_Atoms:                  24
##########                          Grid_Score:          -32.273491
##########                     Grid_vdw_energy:          -31.748871
##########                      Grid_es_energy:           -0.524622
##########           Internal_energy_repulsive:           31.329632

@<TRIPOS>MOLECULE
ZINC001058079801
 47 49 1 0 0
SMALL
USER_CHARGES


@<TRIPOS>ATOM
      1 C1         -5.2392    5.1511   51.3546 C.3     1  ZINC001058079801   -0.1500
      2 C2         -5.3503    3.6251   51.3677 C.3     1  ZINC001058079801   -0.1200
      3 C3         -6.7854    3.2154   51.0310 C.3     1  ZINC001058079801   -0.0300
      4 C4         -7.0099    1.7843   51.4467 C.2     1  ZINC001058079801    0.2900
      5 N5         -6.3933    0.8068   50.8486 N.2     1  ZINC001058079801   -0.4800
      6 S6         -6.9258   -0.6130   51.6159 S.3     1  ZINC001058079801    0.1900
      7 C7         -7.9664    0.2076   52.7169 C.2     1  ZINC001058079801    0.2700
      8 N8         -8.7669   -0.3527   53.6959 N.3     1  ZINC001058079801   -0.4300
      9 C9        -10.1416   -0.5331   53.2121 C.3     1  ZINC001058079801    0.0700
     10 C10       -10.9595   -1.2851   54.2646 C.3     1  ZINC001058079801   -0.1300
     11 C11       -10.9590   -0.4861   55.5709 C.3     1  ZINC001058079801    0.1300
     12 N12       -11.6916   -1.2290   56.5993 N.am    1  ZINC001058079801   -0.6100
     13 C13       -12.8730   -0.6353   57.2301 C.3     1  ZINC001058079801    0.0700
     14 C14       -11.2788   -2.4588   56.9651 C.2     1  ZINC001058079801    0.5200
     15 O15       -10.3017   -2.9510   56.4417 O.2     1  ZINC001058079801   -0.5300
     16 C16       -12.0314   -3.2223   58.0241 C.3     1  ZINC001058079801   -0.0600
     17 C17       -13.3165   -3.7531   57.4430 C.2     1  ZINC001058079801   -0.1900
     18 C18       -14.5644   -3.2427   57.5737 C.2     1  ZINC001058079801   -0.0400
     19 O19       -15.3797   -4.0525   56.8835 O.3     1  ZINC001058079801    0.1000
     20 N20       -14.7718   -4.9633   56.3706 N.2     1  ZINC001058079801   -0.3600
     21 C21       -13.4979   -4.8955   56.6300 C.2     1  ZINC001058079801    0.0000
     22 C22        -9.5134   -0.2706   56.0275 C.3     1  ZINC001058079801   -0.1200
     23 C23        -8.7374    0.4519   54.9239 C.3     1  ZINC001058079801    0.0400
     24 N24        -7.8296    1.4844   52.4273 N.2     1  ZINC001058079801   -0.5300
     25 H25        -4.2168    5.4430   51.5946 H       1  ZINC001058079801    0.0600
     26 H26        -5.5015    5.5259   50.3653 H       1  ZINC001058079801    0.0600
     27 H27        -5.9202    5.5713   52.0947 H       1  ZINC001058079801    0.0600
     28 H28        -4.6692    3.2049   50.6277 H       1  ZINC001058079801    0.0700
     29 H29        -5.0880    3.2503   52.3571 H       1  ZINC001058079801    0.0700
     30 H30        -7.4825    3.8622   51.5638 H       1  ZINC001058079801    0.1000
     31 H31        -6.9484    3.3117   49.9575 H       1  ZINC001058079801    0.0900
     32 H32       -10.5933    0.4419   53.0296 H       1  ZINC001058079801    0.0600
     33 H33       -10.1281   -1.1062   52.2851 H       1  ZINC001058079801    0.1000
     34 H34       -11.9839   -1.4051   53.9119 H       1  ZINC001058079801    0.0800
     35 H35       -10.5164   -2.2657   54.4376 H       1  ZINC001058079801    0.0800
     36 H36       -11.4383    0.4791   55.4077 H       1  ZINC001058079801    0.1000
     37 H37       -13.7627   -0.9041   56.6608 H       1  ZINC001058079801    0.0600
     38 H38       -12.9672   -1.0092   58.2496 H       1  ZINC001058079801    0.0800
     39 H39       -12.7681    0.4495   57.2493 H       1  ZINC001058079801    0.0800
     40 H40       -11.4207   -4.0540   58.3755 H       1  ZINC001058079801    0.1100
     41 H41       -12.2569   -2.5590   58.8592 H       1  ZINC001058079801    0.1100
     42 H42       -14.8467   -2.3581   58.1250 H       1  ZINC001058079801    0.2200
     43 H43       -12.7323   -5.5802   56.2962 H       1  ZINC001058079801    0.1900
     44 H44        -9.5046    0.3342   56.9343 H       1  ZINC001058079801    0.0900
     45 H45        -9.0474   -1.2353   56.2282 H       1  ZINC001058079801    0.0800
     46 H46        -7.7040    0.5943   55.2402 H       1  ZINC001058079801    0.1000
     47 H47        -9.1957    1.4224   54.7334 H       1  ZINC001058079801    0.0700
@<TRIPOS>BOND
     1     1     2    1
     2     1    25    1
     3     1    26    1
     4     1    27    1
     5     2     3    1
     6     2    28    1
     7     2    29    1
     8     3     4    1
     9     3    30    1
    10     3    31    1
    11     4    24    1
    12     4     5    2
    13     5     6    1
    14     6     7    1
    15     7     8    1
    16     7    24    2
    17     8    23    1
    18     8     9    1
    19     9    10    1
    20     9    32    1
    21     9    33    1
    22    10    11    1
    23    10    34    1
    24    10    35    1
    25    11    12    1
    26    11    22    1
    27    11    36    1
    28    12    13    1
    29    12    14   am
    30    13    37    1
    31    13    38    1
    32    13    39    1
    33    14    15    2
    34    14    16    1
    35    16    17    1
    36    16    40    1
    37    16    41    1
    38    17    21    1
    39    17    18    2
    40    18    19    1
    41    18    42    1
    42    19    20    1
    43    20    21    2
    44    21    43    1
    45    22    23    1
    46    22    44    1
    47    22    45    1
    48    23    46    1
    49    23    47    1
@<TRIPOS>SUBSTRUCTURE
     1 ZINC001058079801        1 TEMP              0 ****  ****    0 ROOT


##########                                Name:    ZINC000864730443
##########                DOCK_Rotatable_Bonds:                  10
##########                         Heavy_Atoms:                  25
##########                    Molecular_Weight:             356.462
##########                DOCK_Rotatable_Bonds:                  10
##########                       Formal_Charge:           0.0299988
##########                     HBond_Acceptors:                   7
##########                        HBond_Donors:                   2
##########                         Heavy_Atoms:                  25
##########                          Grid_Score:          -32.270142
##########                     Grid_vdw_energy:          -34.074516
##########                      Grid_es_energy:            1.804376
##########           Internal_energy_repulsive:           24.107748

@<TRIPOS>MOLECULE
ZINC000864730443
 57 58 1 0 0
SMALL
USER_CHARGES


@<TRIPOS>ATOM
      1 C1         -5.6254    2.2323   52.6082 C.3     1  ZINC000864730443   -0.1800
      2 C2         -4.8806    3.0167   51.5261 C.3     1  ZINC000864730443    0.1400
      3 C3         -4.8219    2.1856   50.2429 C.3     1  ZINC000864730443   -0.1800
      4 C4         -5.6163    4.3295   51.2503 C.3     1  ZINC000864730443   -0.1400
      5 O5         -3.5312    3.3039   51.9789 O.3     1  ZINC000864730443   -0.3600
      6 C6         -2.6414    3.6879   51.0442 C.2     1  ZINC000864730443    0.6500
      7 O7         -2.8883    4.6341   50.3229 O.2     1  ZINC000864730443   -0.5700
      8 N8         -1.4772    3.0228   50.9086 N.am    1  ZINC000864730443   -0.7100
      9 C9         -0.5083    3.4416   49.8926 C.3     1  ZINC000864730443    0.1500
     10 C10         0.7768    2.6256   50.0463 C.3     1  ZINC000864730443   -0.1300
     11 C11         0.4599    1.1580   49.9175 C.2     1  ZINC000864730443    0.5300
     12 O12         0.8970    0.3698   50.7291 O.2     1  ZINC000864730443   -0.5300
     13 N13        -0.3091    0.7214   48.9005 N.am    1  ZINC000864730443   -0.7200
     14 C14        -0.6172   -0.7054   48.7753 C.3     1  ZINC000864730443    0.1200
     15 C15        -0.2920   -1.1747   47.3559 C.3     1  ZINC000864730443   -0.1300
     16 C16        -1.2126   -0.4656   46.3607 C.3     1  ZINC000864730443    0.0800
     17 H17        -2.1017   -0.0920   46.8688 H       1  ZINC000864730443    0.0800
     18 C18        -0.4605    0.6982   45.6672 C.3     1  ZINC000864730443   -0.1500
     19 C19        -1.2652    0.8226   44.3448 C.3     1  ZINC000864730443   -0.1600
     20 C20        -1.6570   -0.6434   44.0604 C.3     1  ZINC000864730443    0.0500
     21 O21        -1.5836   -1.3602   45.2998 O.3     1  ZINC000864730443   -0.3800
     22 C22         1.7749    3.0327   48.9580 C.3     1  ZINC000864730443   -0.1000
     23 C23         3.0843    2.2664   49.1690 C.3     1  ZINC000864730443   -0.1600
     24 C24         3.6121    2.5517   50.5775 C.3     1  ZINC000864730443    0.0600
     25 O25         2.6236    2.1791   51.5398 O.3     1  ZINC000864730443   -0.3700
     26 C26         1.3937    2.8971   51.4209 C.3     1  ZINC000864730443    0.0800
     27 H27        -5.1014    1.2970   52.8047 H       1  ZINC000864730443    0.0900
     28 H28        -5.6673    2.8244   53.5224 H       1  ZINC000864730443    0.0600
     29 H29        -6.6383    2.0167   52.2683 H       1  ZINC000864730443    0.0700
     30 H30        -5.8349    1.9700   49.9031 H       1  ZINC000864730443    0.0700
     31 H31        -4.2913    2.7445   49.4721 H       1  ZINC000864730443    0.0600
     32 H32        -4.2978    1.2503   50.4395 H       1  ZINC000864730443    0.0900
     33 H33        -5.6581    4.9217   52.1646 H       1  ZINC000864730443    0.0700
     34 H34        -5.0856    4.8884   50.4794 H       1  ZINC000864730443    0.0700
     35 H35        -6.6292    4.1139   50.9104 H       1  ZINC000864730443    0.0800
     36 H36        -1.2807    2.2666   51.4835 H       1  ZINC000864730443    0.4100
     37 H37        -0.9276    3.2757   48.9003 H       1  ZINC000864730443    0.0900
     38 H38        -0.2836    4.5006   50.0197 H       1  ZINC000864730443    0.0800
     39 H39        -0.6588    1.3518   48.2515 H       1  ZINC000864730443    0.4000
     40 H40        -0.0194   -1.2702   49.4907 H       1  ZINC000864730443    0.0700
     41 H41        -1.6758   -0.8678   48.9782 H       1  ZINC000864730443    0.0700
     42 H42         0.7461   -0.9370   47.1235 H       1  ZINC000864730443    0.0800
     43 H43        -0.4423   -2.2520   47.2860 H       1  ZINC000864730443    0.0800
     44 H44        -0.5263    1.6138   46.2549 H       1  ZINC000864730443    0.0900
     45 H45         0.5784    0.4330   45.4714 H       1  ZINC000864730443    0.0800
     46 H46        -2.1518    1.4405   44.4868 H       1  ZINC000864730443    0.0800
     47 H47        -0.6389    1.2188   43.5454 H       1  ZINC000864730443    0.0800
     48 H48        -2.6739   -0.6852   43.6702 H       1  ZINC000864730443    0.0700
     49 H49        -0.9647   -1.0778   43.3392 H       1  ZINC000864730443    0.0700
     50 H50         1.3644    2.7903   47.9777 H       1  ZINC000864730443    0.0800
     51 H51         1.9653    4.1042   49.0202 H       1  ZINC000864730443    0.0800
     52 H52         2.9027    1.1974   49.0576 H       1  ZINC000864730443    0.0900
     53 H53         3.8190    2.5907   48.4320 H       1  ZINC000864730443    0.0800
     54 H54         4.5214    1.9754   50.7485 H       1  ZINC000864730443    0.1000
     55 H55         3.8317    3.6149   50.6749 H       1  ZINC000864730443    0.0500
     56 H56         1.5844    3.9648   51.5294 H       1  ZINC000864730443    0.0700
     57 H57         0.7050    2.5697   52.1996 H       1  ZINC000864730443    0.1000
@<TRIPOS>BOND
     1     1     2    1
     2     1    27    1
     3     1    28    1
     4     1    29    1
     5     2     3    1
     6     2     4    1
     7     2     5    1
     8     3    30    1
     9     3    31    1
    10     3    32    1
    11     4    33    1
    12     4    34    1
    13     4    35    1
    14     5     6    1
    15     6     7    2
    16     6     8   am
    17     8     9    1
    18     8    36    1
    19     9    10    1
    20     9    37    1
    21     9    38    1
    22    10    26    1
    23    10    11    1
    24    10    22    1
    25    11    12    2
    26    11    13   am
    27    13    14    1
    28    13    39    1
    29    14    15    1
    30    14    40    1
    31    14    41    1
    32    15    16    1
    33    15    42    1
    34    15    43    1
    35    16    17    1
    36    16    21    1
    37    16    18    1
    38    18    19    1
    39    18    44    1
    40    18    45    1
    41    19    20    1
    42    19    46    1
    43    19    47    1
    44    20    21    1
    45    20    48    1
    46    20    49    1
    47    22    23    1
    48    22    50    1
    49    22    51    1
    50    23    24    1
    51    23    52    1
    52    23    53    1
    53    24    25    1
    54    24    54    1
    55    24    55    1
    56    25    26    1
    57    26    56    1
    58    26    57    1
@<TRIPOS>SUBSTRUCTURE
     1 ZINC000864730443        1 TEMP              0 ****  ****    0 ROOT


##########                                Name:    ZINC000842947763
##########                DOCK_Rotatable_Bonds:                   7
##########                         Heavy_Atoms:                  24
##########                    Molecular_Weight:             365.373
##########                DOCK_Rotatable_Bonds:                   7
##########                       Formal_Charge:          0.00999997
##########                     HBond_Acceptors:                   9
##########                        HBond_Donors:                   0
##########                         Heavy_Atoms:                  24
##########                          Grid_Score:          -32.264557
##########                     Grid_vdw_energy:          -32.079201
##########                      Grid_es_energy:           -0.185354
##########           Internal_energy_repulsive:           31.944429

@<TRIPOS>MOLECULE
ZINC000842947763
 42 43 1 0 0
SMALL
USER_CHARGES


@<TRIPOS>ATOM
      1 C1         -0.5741    2.2257   47.5585 C.3     1  ZINC000842947763   -0.1600
      2 C2         -1.6870    1.5088   48.3255 C.3     1  ZINC000842947763   -0.1000
      3 H3         -2.4916    1.2471   47.6384 H       1  ZINC000842947763    0.1000
      4 C4         -2.2297    2.4321   49.4183 C.3     1  ZINC000842947763    0.0800
      5 O5         -3.5220    1.9445   49.8660 O.3     1  ZINC000842947763   -0.3500
      6 C6         -4.1730    2.6888   50.7816 C.2     1  ZINC000842947763    0.5200
      7 O7         -3.8294    3.8361   50.9875 O.2     1  ZINC000842947763   -0.5100
      8 C8         -5.3013    2.1112   51.5335 C.ar    1  ZINC000842947763   -0.1600
      9 C9         -5.9276    0.9462   51.0794 C.ar    1  ZINC000842947763   -0.0200
     10 C10        -6.9785    0.4128   51.7850 C.ar    1  ZINC000842947763   -0.1700
     11 C11        -7.4284    1.0294   52.9590 C.ar    1  ZINC000842947763    0.2000
     12 C12        -6.7993    2.1869   53.4022 C.ar    1  ZINC000842947763   -0.1500
     13 C13        -5.7497    2.7208   52.7091 C.ar    1  ZINC000842947763   -0.0100
     14 C14        -7.4745    2.6400   54.6779 C.3     1  ZINC000842947763   -0.0800
     15 C15        -8.5775    1.5966   54.9196 C.3     1  ZINC000842947763    0.1100
     16 N16        -8.4630    0.6513   53.8061 N.am    1  ZINC000842947763   -0.9400
     17 S17        -9.4281   -0.6765   53.5881 S.o2    1  ZINC000842947763    2.6100
     18 C18       -11.1051    0.0008   53.4481 C.3     1  ZINC000842947763   -0.6700
     19 O19        -9.0037   -1.2180   52.3448 O.2     1  ZINC000842947763   -0.9300
     20 O20        -9.2874   -1.4139   54.7946 O.2     1  ZINC000842947763   -0.9400
     21 C21        -1.1279    0.2361   48.9645 C.3     1  ZINC000842947763   -0.1600
     22 C22        -0.8485   -0.8012   47.8750 C.3     1  ZINC000842947763    0.4600
     23 F23        -1.8046   -0.6815   46.8609 F       1  ZINC000842947763   -0.1800
     24 F24         0.4267   -0.5854   47.3416 F       1  ZINC000842947763   -0.1800
     25 F25        -0.9120   -2.0854   48.4265 F       1  ZINC000842947763   -0.1800
     26 H26        -0.2840    1.6269   46.6951 H       1  ZINC000842947763    0.0700
     27 H27        -0.9330    3.1984   47.2221 H       1  ZINC000842947763    0.0700
     28 H28         0.2877    2.3625   48.2118 H       1  ZINC000842947763    0.0600
     29 H29        -1.5360    2.4471   50.2589 H       1  ZINC000842947763    0.0800
     30 H30        -2.3400    3.4407   49.0200 H       1  ZINC000842947763    0.0800
     31 H31        -5.5856    0.4665   50.1742 H       1  ZINC000842947763    0.1500
     32 H32        -7.4606   -0.4871   51.4323 H       1  ZINC000842947763    0.1500
     33 H33        -5.2705    3.6205   53.0659 H       1  ZINC000842947763    0.1400
     34 H34        -6.7642    2.6415   55.5047 H       1  ZINC000842947763    0.1000
     35 H35        -7.9098    3.6308   54.5472 H       1  ZINC000842947763    0.1000
     36 H36        -8.4130    1.0852   55.8680 H       1  ZINC000842947763    0.1000
     37 H37        -9.5576    2.0735   54.9113 H       1  ZINC000842947763    0.0900
     38 H38       -11.1520    0.6820   52.5983 H       1  ZINC000842947763    0.1300
     39 H39       -11.8147   -0.8133   53.3007 H       1  ZINC000842947763    0.1400
     40 H40       -11.3563    0.5410   54.3610 H       1  ZINC000842947763    0.1300
     41 H41        -0.2017    0.4697   49.4896 H       1  ZINC000842947763    0.1200
     42 H42        -1.8547   -0.1655   49.6707 H       1  ZINC000842947763    0.1100
@<TRIPOS>BOND
     1     1     2    1
     2     1    26    1
     3     1    27    1
     4     1    28    1
     5     2     3    1
     6     2     4    1
     7     2    21    1
     8     4     5    1
     9     4    29    1
    10     4    30    1
    11     5     6    1
    12     6     7    2
    13     6     8    1
    14     8    13   ar
    15     8     9   ar
    16     9    10   ar
    17     9    31    1
    18    10    11   ar
    19    10    32    1
    20    11    16    1
    21    11    12   ar
    22    12    13   ar
    23    12    14    1
    24    13    33    1
    25    14    15    1
    26    14    34    1
    27    14    35    1
    28    15    16    1
    29    15    36    1
    30    15    37    1
    31    16    17   am
    32    17    18    1
    33    17    19    2
    34    17    20    2
    35    18    38    1
    36    18    39    1
    37    18    40    1
    38    21    22    1
    39    21    41    1
    40    21    42    1
    41    22    23    1
    42    22    24    1
    43    22    25    1
@<TRIPOS>SUBSTRUCTURE
     1 ZINC000842947763        1 TEMP              0 ****  ****    0 ROOT


##########                                Name:    ZINC000970996691
##########                DOCK_Rotatable_Bonds:                   7
##########                         Heavy_Atoms:                  24
##########                    Molecular_Weight:             334.462
##########                DOCK_Rotatable_Bonds:                   7
##########                       Formal_Charge:          -0.0199999
##########                     HBond_Acceptors:                   6
##########                        HBond_Donors:                   0
##########                         Heavy_Atoms:                  24
##########                          Grid_Score:          -32.262623
##########                     Grid_vdw_energy:          -31.528496
##########                      Grid_es_energy:           -0.734128
##########           Internal_energy_repulsive:           13.789070

@<TRIPOS>MOLECULE
ZINC000970996691
 54 56 1 0 0
SMALL
USER_CHARGES


@<TRIPOS>ATOM
      1 C1        -11.8164    4.6130   50.4514 C.3     1  ZINC000970996691   -0.1500
      2 C2        -11.4228    5.4214   49.2135 C.3     1  ZINC000970996691   -0.1200
      3 C3        -10.1988    4.7818   48.5547 C.3     1  ZINC000970996691   -0.0300
      4 C4         -9.0515    4.7695   49.5316 C.2     1  ZINC000970996691    0.1800
      5 N5         -8.7602    3.8148   50.3821 N.2     1  ZINC000970996691   -0.4700
      6 C6         -7.6654    4.2371   51.0393 C.2     1  ZINC000970996691    0.1800
      7 C7         -6.9353    3.4923   52.1271 C.3     1  ZINC000970996691    0.1500
      8 N8         -5.5286    3.9149   52.1507 N.3     1  ZINC000970996691   -0.5200
      9 C9         -5.0976    4.2338   53.5183 C.3     1  ZINC000970996691    0.0200
     10 C10        -4.6615    2.8922   51.5505 C.3     1  ZINC000970996691    0.0700
     11 H11        -4.6268    1.9981   52.1730 H       1  ZINC000970996691    0.0600
     12 C12        -5.1219    2.5488   50.1092 C.3     1  ZINC000970996691   -0.1300
     13 C13        -3.8206    2.0623   49.4373 C.3     1  ZINC000970996691    0.1000
     14 N14        -2.6979    2.6223   50.2037 N.am    1  ZINC000970996691   -0.6200
     15 C15        -1.3910    2.4149   49.9478 C.2     1  ZINC000970996691    0.5300
     16 O16        -0.5464    2.9299   50.6495 O.2     1  ZINC000970996691   -0.5300
     17 C17        -0.9792    1.5430   48.7896 C.3     1  ZINC000970996691   -0.1000
     18 C18         0.2998    2.1000   48.1615 C.3     1  ZINC000970996691   -0.1100
     19 C19         0.7179    1.2148   46.9856 C.3     1  ZINC000970996691   -0.1200
     20 C20         0.9729   -0.2089   47.4845 C.3     1  ZINC000970996691   -0.1200
     21 C21        -0.3062   -0.7660   48.1128 C.3     1  ZINC000970996691   -0.1200
     22 C22        -0.7242    0.1193   49.2885 C.3     1  ZINC000970996691   -0.1000
     23 C23        -3.2380    3.4492   51.2989 C.3     1  ZINC000970996691    0.1200
     24 N24        -7.3525    5.4053   50.5639 N.2     1  ZINC000970996691   -0.3800
     25 O25        -8.1329    5.7267   49.6927 O.3     1  ZINC000970996691    0.0800
     26 H26       -12.0546    3.5909   50.1573 H       1  ZINC000970996691    0.0600
     27 H27       -10.9866    4.6037   51.1582 H       1  ZINC000970996691    0.0600
     28 H28       -12.6883    5.0686   50.9208 H       1  ZINC000970996691    0.0600
     29 H29       -12.2526    5.4307   48.5067 H       1  ZINC000970996691    0.0700
     30 H30       -11.1845    6.4435   49.5076 H       1  ZINC000970996691    0.0700
     31 H31       -10.4371    3.7595   48.2611 H       1  ZINC000970996691    0.1100
     32 H32        -9.9188    5.3573   47.6725 H       1  ZINC000970996691    0.1000
     33 H33        -7.3967    3.7110   53.0900 H       1  ZINC000970996691    0.0700
     34 H34        -6.9896    2.4210   51.9332 H       1  ZINC000970996691    0.1100
     35 H35        -5.2082    3.3518   54.1491 H       1  ZINC000970996691    0.0300
     36 H36        -4.0527    4.5438   53.5070 H       1  ZINC000970996691    0.0800
     37 H37        -5.7123    5.0427   53.9137 H       1  ZINC000970996691    0.0700
     38 H38        -5.8693    1.7555   50.1218 H       1  ZINC000970996691    0.0800
     39 H39        -5.5077    3.4355   49.6060 H       1  ZINC000970996691    0.0900
     40 H40        -3.7772    0.9735   49.4582 H       1  ZINC000970996691    0.0700
     41 H41        -3.7800    2.4173   48.4074 H       1  ZINC000970996691    0.0700
     42 H42        -1.7743    1.5298   48.0441 H       1  ZINC000970996691    0.0900
     43 H43         0.1181    3.1143   47.8060 H       1  ZINC000970996691    0.0700
     44 H44         1.0949    2.1132   48.9069 H       1  ZINC000970996691    0.0700
     45 H45        -0.0772    1.2016   46.2401 H       1  ZINC000970996691    0.0600
     46 H46         1.6291    1.6117   46.5381 H       1  ZINC000970996691    0.0700
     47 H47         1.2707   -0.8396   46.6468 H       1  ZINC000970996691    0.0600
     48 H48         1.7679   -0.1957   48.2300 H       1  ZINC000970996691    0.0600
     49 H49        -1.1012   -0.7792   47.3672 H       1  ZINC000970996691    0.0600
     50 H50        -0.1245   -1.7802   48.4681 H       1  ZINC000970996691    0.0700
     51 H51         0.0708    0.1325   50.0341 H       1  ZINC000970996691    0.0800
     52 H52        -1.6355   -0.2776   49.7361 H       1  ZINC000970996691    0.0600
     53 H53        -3.2888    4.4948   50.9952 H       1  ZINC000970996691    0.0800
     54 H54        -2.6241    3.3423   52.1932 H       1  ZINC000970996691    0.0800
@<TRIPOS>BOND
     1     1     2    1
     2     1    26    1
     3     1    27    1
     4     1    28    1
     5     2     3    1
     6     2    29    1
     7     2    30    1
     8     3     4    1
     9     3    31    1
    10     3    32    1
    11     4    25    1
    12     4     5    2
    13     5     6    1
    14     6     7    1
    15     6    24    2
    16     7     8    1
    17     7    33    1
    18     7    34    1
    19     8     9    1
    20     8    10    1
    21     9    35    1
    22     9    36    1
    23     9    37    1
    24    10    11    1
    25    10    23    1
    26    10    12    1
    27    12    13    1
    28    12    38    1
    29    12    39    1
    30    13    14    1
    31    13    40    1
    32    13    41    1
    33    14    15   am
    34    14    23    1
    35    15    16    2
    36    15    17    1
    37    17    22    1
    38    17    18    1
    39    17    42    1
    40    18    19    1
    41    18    43    1
    42    18    44    1
    43    19    20    1
    44    19    45    1
    45    19    46    1
    46    20    21    1
    47    20    47    1
    48    20    48    1
    49    21    22    1
    50    21    49    1
    51    21    50    1
    52    22    51    1
    53    22    52    1
    54    23    53    1
    55    23    54    1
    56    24    25    1
@<TRIPOS>SUBSTRUCTURE
     1 ZINC000970996691        1 TEMP              0 ****  ****    0 ROOT


##########                                Name:    ZINC000119180466
##########                DOCK_Rotatable_Bonds:                  10
##########                         Heavy_Atoms:                  23
##########                    Molecular_Weight:             350.405
##########                DOCK_Rotatable_Bonds:                  10
##########                       Formal_Charge:           0.0299997
##########                     HBond_Acceptors:                   8
##########                        HBond_Donors:                   3
##########                         Heavy_Atoms:                  23
##########                          Grid_Score:          -32.251431
##########                     Grid_vdw_energy:          -32.263149
##########                      Grid_es_energy:            0.011717
##########           Internal_energy_repulsive:           14.232306

@<TRIPOS>MOLECULE
ZINC000119180466
 44 44 1 0 0
SMALL
USER_CHARGES


@<TRIPOS>ATOM
      1 C1         -7.5954    1.0588   53.9878 C.3     1  ZINC000119180466   -0.1300
      2 S2         -6.0777    1.2902   53.0216 S.3     1  ZINC000119180466   -0.2200
      3 C3         -6.6493    1.0951   51.3111 C.3     1  ZINC000119180466   -0.0700
      4 H4         -7.6739    1.4574   51.2268 H       1  ZINC000119180466    0.1100
      5 C5         -6.5975   -0.3835   50.9215 C.3     1  ZINC000119180466    0.0800
      6 O6         -7.5626   -1.1110   51.6840 O.3     1  ZINC000119180466   -0.5600
      7 C7         -5.7450    1.9008   50.3762 C.3     1  ZINC000119180466    0.1900
      8 H8         -5.9499    1.6215   49.3427 H       1  ZINC000119180466    0.1000
      9 C9         -6.0182    3.3944   50.5644 C.3     1  ZINC000119180466   -0.1700
     10 N10        -4.3424    1.6175   50.6897 N.am    1  ZINC000119180466   -0.7200
     11 C11        -3.3652    2.0796   49.8846 C.2     1  ZINC000119180466    0.7100
     12 O12        -3.6479    2.7329   48.8988 O.2     1  ZINC000119180466   -0.6000
     13 N13        -2.0748    1.8177   50.1722 N.am    1  ZINC000119180466   -0.7400
     14 C14        -1.0126    2.3214   49.2980 C.3     1  ZINC000119180466    0.2000
     15 H15        -1.1099    3.4020   49.1935 H       1  ZINC000119180466    0.1000
     16 C16         0.3506    1.9888   49.9080 C.3     1  ZINC000119180466   -0.1600
     17 C17        -1.1281    1.6732   47.9425 C.ar    1  ZINC000119180466   -0.0600
     18 C18        -1.0176    2.4403   46.7978 C.ar    1  ZINC000119180466   -0.1100
     19 C19        -1.1236    1.8455   45.5544 C.ar    1  ZINC000119180466   -0.0600
     20 C20        -1.3396    0.4837   45.4557 C.ar    1  ZINC000119180466   -0.1800
     21 C21        -1.4557   -0.1645   44.1003 C.3     1  ZINC000119180466    0.5100
     22 F22        -0.3161    0.1294   43.3437 F       1  ZINC000119180466   -0.1800
     23 F23        -1.5687   -1.5503   44.2541 F       1  ZINC000119180466   -0.1800
     24 F24        -2.5900    0.3259   43.4444 F       1  ZINC000119180466   -0.1800
     25 C25        -1.4488   -0.2835   46.6003 C.ar    1  ZINC000119180466   -0.0600
     26 C26        -1.3389    0.3106   47.8437 C.ar    1  ZINC000119180466   -0.1100
     27 H27        -8.0026    0.0667   53.7927 H       1  ZINC000119180466    0.0800
     28 H28        -7.3685    1.1561   55.0495 H       1  ZINC000119180466    0.1000
     29 H29        -8.3271    1.8144   53.7019 H       1  ZINC000119180466    0.0800
     30 H30        -6.8203   -0.4874   49.8596 H       1  ZINC000119180466    0.0500
     31 H31        -5.6019   -0.7780   51.1242 H       1  ZINC000119180466    0.0600
     32 H32        -8.4698   -0.7942   51.5751 H       1  ZINC000119180466    0.3800
     33 H33        -5.8134    3.6738   51.5980 H       1  ZINC000119180466    0.0700
     34 H34        -5.3739    3.9683   49.8984 H       1  ZINC000119180466    0.0700
     35 H35        -7.0618    3.6052   50.3311 H       1  ZINC000119180466    0.0700
     36 H36        -4.1167    1.0975   51.4768 H       1  ZINC000119180466    0.4100
     37 H37        -1.8494    1.2956   50.9580 H       1  ZINC000119180466    0.4000
     38 H38         1.1408    2.3635   49.2576 H       1  ZINC000119180466    0.0700
     39 H39         0.4340    2.4577   50.8885 H       1  ZINC000119180466    0.0700
     40 H40         0.4479    0.9082   50.0125 H       1  ZINC000119180466    0.0600
     41 H41        -0.8489    3.5042   46.8749 H       1  ZINC000119180466    0.1300
     42 H42        -1.0380    2.4450   44.6601 H       1  ZINC000119180466    0.1400
     43 H43        -1.6172   -1.3475   46.5233 H       1  ZINC000119180466    0.1400
     44 H44        -1.4242   -0.2888   48.7381 H       1  ZINC000119180466    0.1400
@<TRIPOS>BOND
     1     1     2    1
     2     1    27    1
     3     1    28    1
     4     1    29    1
     5     2     3    1
     6     3     4    1
     7     3     5    1
     8     3     7    1
     9     5     6    1
    10     5    30    1
    11     5    31    1
    12     6    32    1
    13     7     8    1
    14     7     9    1
    15     7    10    1
    16     9    33    1
    17     9    34    1
    18     9    35    1
    19    10    11   am
    20    10    36    1
    21    11    12    2
    22    11    13   am
    23    13    14    1
    24    13    37    1
    25    14    15    1
    26    14    16    1
    27    14    17    1
    28    16    38    1
    29    16    39    1
    30    16    40    1
    31    17    26   ar
    32    17    18   ar
    33    18    19   ar
    34    18    41    1
    35    19    20   ar
    36    19    42    1
    37    20    21    1
    38    20    25   ar
    39    21    22    1
    40    21    23    1
    41    21    24    1
    42    25    26   ar
    43    25    43    1
    44    26    44    1
@<TRIPOS>SUBSTRUCTURE
     1 ZINC000119180466        1 TEMP              0 ****  ****    0 ROOT


##########                                Name:    ZINC000512239524
##########                DOCK_Rotatable_Bonds:                   9
##########                         Heavy_Atoms:                  31
##########                    Molecular_Weight:             424.518
##########                DOCK_Rotatable_Bonds:                   9
##########                       Formal_Charge:          0.00999919
##########                     HBond_Acceptors:                   7
##########                        HBond_Donors:                   1
##########                         Heavy_Atoms:                  31
##########                          Grid_Score:          -32.223877
##########                     Grid_vdw_energy:          -32.096512
##########                      Grid_es_energy:           -0.127365
##########           Internal_energy_repulsive:           35.570843

@<TRIPOS>MOLECULE
ZINC000512239524
 60 63 1 0 0
SMALL
USER_CHARGES


@<TRIPOS>ATOM
      1 C1         -0.7281    3.4493   48.8970 C.3     1  ZINC000512239524   -0.1600
      2 C2         -1.2369    2.1288   49.4789 C.3     1  ZINC000512239524    0.2000
      3 H3         -0.7372    1.9334   50.4276 H       1  ZINC000512239524    0.1100
      4 N4         -2.6828    2.2166   49.6976 N.am    1  ZINC000512239524   -0.7400
      5 C5         -3.1649    2.9155   50.7442 C.2     1  ZINC000512239524    0.7100
      6 O6         -2.3997    3.4734   51.5070 O.2     1  ZINC000512239524   -0.5800
      7 N7         -4.4951    2.9962   50.9454 N.am    1  ZINC000512239524   -0.6300
      8 C8         -5.4320    2.3227   50.0359 C.3     1  ZINC000512239524    0.1300
      9 C9         -6.3661    1.4320   50.8612 C.3     1  ZINC000512239524   -0.1100
     10 C10        -7.0399    2.2741   51.9469 C.3     1  ZINC000512239524   -0.1000
     11 C11        -7.9853    1.4084   52.7393 C.2     1  ZINC000512239524    0.5300
     12 O12        -7.7990    0.2119   52.8077 O.2     1  ZINC000512239524   -0.5300
     13 N13        -9.0379    1.9638   53.3719 N.am    1  ZINC000512239524   -0.5800
     14 C14        -9.2639    3.4088   53.2879 C.3     1  ZINC000512239524    0.1500
     15 C15       -10.4174    3.6836   52.3577 C.ar    1  ZINC000512239524   -0.1100
     16 C16       -11.5808    4.2472   52.8473 C.ar    1  ZINC000512239524   -0.0900
     17 C17       -12.6389    4.4992   51.9941 C.ar    1  ZINC000512239524   -0.1200
     18 C18       -12.5333    4.1881   50.6514 C.ar    1  ZINC000512239524   -0.1100
     19 C19       -11.3696    3.6253   50.1618 C.ar    1  ZINC000512239524   -0.1200
     20 C20       -10.3099    3.3772   51.0140 C.ar    1  ZINC000512239524   -0.1100
     21 C21        -9.9559    1.1224   54.1436 C.3     1  ZINC000512239524    0.0700
     22 C22       -11.4233    1.0972   53.7116 C.3     1  ZINC000512239524   -0.1900
     23 C23       -10.5286   -0.1165   53.4525 C.3     1  ZINC000512239524   -0.2000
     24 C24        -5.9744    2.8527   52.8808 C.3     1  ZINC000512239524   -0.1400
     25 C25        -5.0357    3.7545   52.0819 C.3     1  ZINC000512239524    0.1100
     26 C26        -0.9416    1.0084   48.5153 C.ar    1  ZINC000512239524   -0.0800
     27 C27        -1.6910    0.8499   47.3603 C.ar    1  ZINC000512239524   -0.1400
     28 C28        -1.3910   -0.1893   46.4995 C.ar    1  ZINC000512239524    0.1000
     29 N29        -0.4061   -1.0244   46.7660 N.ar    1  ZINC000512239524   -0.4600
     30 C30         0.3288   -0.9059   47.8545 C.ar    1  ZINC000512239524    0.0800
     31 C31         0.0916    0.1133   48.7605 C.ar    1  ZINC000512239524    0.0600
     32 F32         0.8481    0.2294   49.8738 F       1  ZINC000512239524   -0.1200
     33 H33        -0.9417    4.2597   49.5939 H       1  ZINC000512239524    0.0700
     34 H34         0.3477    3.3840   48.7343 H       1  ZINC000512239524    0.0700
     35 H35        -1.2279    3.6447   47.9483 H       1  ZINC000512239524    0.0600
     36 H36        -3.2933    1.7715   49.0891 H       1  ZINC000512239524    0.3900
     37 H37        -6.0183    3.0676   49.4979 H       1  ZINC000512239524    0.0700
     38 H38        -4.8758    1.7103   49.3262 H       1  ZINC000512239524    0.1000
     39 H39        -7.1269    1.0011   50.2103 H       1  ZINC000512239524    0.0900
     40 H40        -5.7893    0.6325   51.3263 H       1  ZINC000512239524    0.0800
     41 H41        -7.5961    3.0883   51.4822 H       1  ZINC000512239524    0.1000
     42 H42        -9.4958    3.7985   54.2791 H       1  ZINC000512239524    0.0900
     43 H43        -8.3661    3.8954   52.9069 H       1  ZINC000512239524    0.1000
     44 H44       -11.6633    4.4903   53.8963 H       1  ZINC000512239524    0.1300
     45 H45       -13.5481    4.9389   52.3767 H       1  ZINC000512239524    0.1200
     46 H46       -13.3603    4.3843   49.9850 H       1  ZINC000512239524    0.1200
     47 H47       -11.2872    3.3819   49.1127 H       1  ZINC000512239524    0.1200
     48 H48        -9.4007    2.9376   50.6315 H       1  ZINC000512239524    0.1200
     49 H49        -9.7436    1.0507   55.2104 H       1  ZINC000512239524    0.1300
     50 H50       -12.1769    1.0091   54.4941 H       1  ZINC000512239524    0.1100
     51 H51       -11.7058    1.7067   52.8532 H       1  ZINC000512239524    0.1000
     52 H52       -10.2225   -0.3057   52.4236 H       1  ZINC000512239524    0.1100
     53 H53       -10.6936   -1.0033   54.0645 H       1  ZINC000512239524    0.1000
     54 H54        -6.4565    3.4332   53.6674 H       1  ZINC000512239524    0.0900
     55 H55        -5.4014    2.0399   53.3269 H       1  ZINC000512239524    0.0700
     56 H56        -4.2188    4.0893   52.7211 H       1  ZINC000512239524    0.0800
     57 H57        -5.5876    4.6172   51.7086 H       1  ZINC000512239524    0.0800
     58 H58        -2.4996    1.5296   47.1357 H       1  ZINC000512239524    0.1400
     59 H59        -1.9707   -0.3190   45.5975 H       1  ZINC000512239524    0.1700
     60 H60         1.1271   -1.6095   48.0391 H       1  ZINC000512239524    0.1700
@<TRIPOS>BOND
     1     1     2    1
     2     1    33    1
     3     1    34    1
     4     1    35    1
     5     2     3    1
     6     2     4    1
     7     2    26    1
     8     4     5   am
     9     4    36    1
    10     5     6    2
    11     5     7   am
    12     7    25    1
    13     7     8    1
    14     8     9    1
    15     8    37    1
    16     8    38    1
    17     9    10    1
    18     9    39    1
    19     9    40    1
    20    10    11    1
    21    10    24    1
    22    10    41    1
    23    11    12    2
    24    11    13   am
    25    13    14    1
    26    13    21    1
    27    14    15    1
    28    14    42    1
    29    14    43    1
    30    15    20   ar
    31    15    16   ar
    32    16    17   ar
    33    16    44    1
    34    17    18   ar
    35    17    45    1
    36    18    19   ar
    37    18    46    1
    38    19    20   ar
    39    19    47    1
    40    20    48    1
    41    21    23    1
    42    21    22    1
    43    21    49    1
    44    22    23    1
    45    22    50    1
    46    22    51    1
    47    23    52    1
    48    23    53    1
    49    24    25    1
    50    24    54    1
    51    24    55    1
    52    25    56    1
    53    25    57    1
    54    26    31   ar
    55    26    27   ar
    56    27    28   ar
    57    27    58    1
    58    28    29   ar
    59    28    59    1
    60    29    30   ar
    61    30    31   ar
    62    30    60    1
    63    31    32    1
@<TRIPOS>SUBSTRUCTURE
     1 ZINC000512239524        1 TEMP              0 ****  ****    0 ROOT


##########                                Name:    ZINC001045463759
##########                DOCK_Rotatable_Bonds:                   6
##########                         Heavy_Atoms:                  24
##########                    Molecular_Weight:             336.385
##########                DOCK_Rotatable_Bonds:                   6
##########                       Formal_Charge:          1.3411e-07
##########                     HBond_Acceptors:                   7
##########                        HBond_Donors:                   2
##########                         Heavy_Atoms:                  24
##########                          Grid_Score:          -32.216755
##########                     Grid_vdw_energy:          -31.032492
##########                      Grid_es_energy:           -1.184265
##########           Internal_energy_repulsive:            7.710033

@<TRIPOS>MOLECULE
ZINC001045463759
 46 49 1 0 0
SMALL
USER_CHARGES


@<TRIPOS>ATOM
      1 O1         -1.9301    6.1744   51.6150 O.2     1  ZINC001045463759   -0.5100
      2 C2         -1.1948    5.2230   51.7736 C.2     1  ZINC001045463759    0.5400
      3 N3         -1.5974    3.9911   51.4035 N.am    1  ZINC001045463759   -0.7200
      4 C4         -2.9255    3.8004   50.8154 C.3     1  ZINC001045463759    0.1400
      5 H5         -3.1362    4.6147   50.1221 H       1  ZINC001045463759    0.1000
      6 C6         -3.9783    3.7905   51.9255 C.3     1  ZINC001045463759   -0.1300
      7 C7         -5.3653    3.5914   51.3113 C.3     1  ZINC001045463759   -0.1200
      8 C8         -5.4038    2.2591   50.5600 C.3     1  ZINC001045463759   -0.1200
      9 C9         -4.3511    2.2689   49.4499 C.3     1  ZINC001045463759   -0.1300
     10 C10        -2.9641    2.4681   50.0641 C.3     1  ZINC001045463759    0.1500
     11 H11        -2.7534    1.6538   50.7575 H       1  ZINC001045463759    0.0900
     12 N12        -1.9560    2.4775   49.0011 N.pl3   1  ZINC001045463759   -0.7100
     13 C13        -1.4761    1.2822   48.4910 C.ar    1  ZINC001045463759    0.4400
     14 C14        -0.7910    0.3846   49.3122 C.ar    1  ZINC001045463759   -0.3000
     15 C15        -0.3323   -0.7935   48.7563 C.ar    1  ZINC001045463759    0.1800
     16 N16        -0.5554   -1.0323   47.4717 N.ar    1  ZINC001045463759   -0.5600
     17 C17        -1.2056   -0.1646   46.7228 C.ar    1  ZINC001045463759    0.4000
     18 C18        -1.4351   -0.4803   45.2671 C.3     1  ZINC001045463759   -0.1100
     19 C19        -2.0049    0.6320   44.3844 C.3     1  ZINC001045463759   -0.1500
     20 C20        -0.5387    0.2185   44.2429 C.3     1  ZINC001045463759   -0.1500
     21 N21        -1.6654    0.9689   47.2124 N.ar    1  ZINC001045463759   -0.5700
     22 C22         0.1714    5.4192   52.3786 C.3     1  ZINC001045463759   -0.2000
     23 H23         0.2829    6.2989   53.0125 H       1  ZINC001045463759    0.1500
     24 C24         0.9598    4.1660   52.7644 C.3     1  ZINC001045463759   -0.1500
     25 C25         1.3811    4.9908   51.5456 C.3     1  ZINC001045463759    0.2300
     26 F26         1.1343    4.4464   50.2806 F       1  ZINC001045463759   -0.1400
     27 F27         2.5459    5.7577   51.6559 F       1  ZINC001045463759   -0.1500
     28 H28        -1.0078    3.2308   51.5267 H       1  ZINC001045463759    0.4000
     29 H29        -3.7676    2.9763   52.6188 H       1  ZINC001045463759    0.0700
     30 H30        -3.9509    4.7397   52.4608 H       1  ZINC001045463759    0.0800
     31 H31        -6.1155    3.5844   52.1021 H       1  ZINC001045463759    0.0700
     32 H32        -5.5760    4.4057   50.6180 H       1  ZINC001045463759    0.0700
     33 H33        -5.1932    1.4448   51.2532 H       1  ZINC001045463759    0.0700
     34 H34        -6.3920    2.1172   50.1224 H       1  ZINC001045463759    0.0700
     35 H35        -4.3785    1.3198   48.9146 H       1  ZINC001045463759    0.0700
     36 H36        -4.5617    3.0832   48.7565 H       1  ZINC001045463759    0.0700
     37 H37        -1.6245    3.3206   48.6546 H       1  ZINC001045463759    0.4100
     38 H38        -0.6235    0.6063   50.3559 H       1  ZINC001045463759    0.1400
     39 H39         0.2021   -1.5115   49.3608 H       1  ZINC001045463759    0.1700
     40 H40        -1.7440   -1.5029   45.0509 H       1  ZINC001045463759    0.1300
     41 H41        -2.6891    0.3412   43.5873 H       1  ZINC001045463759    0.1000
     42 H42        -2.2138    1.5920   44.8566 H       1  ZINC001045463759    0.1100
     43 H43         0.2171    0.9065   44.6219 H       1  ZINC001045463759    0.1000
     44 H44        -0.2581   -0.3443   43.3526 H       1  ZINC001045463759    0.1000
     45 H45         1.5903    4.2214   53.6518 H       1  ZINC001045463759    0.1400
     46 H46         0.4903    3.1996   52.5805 H       1  ZINC001045463759    0.1300
@<TRIPOS>BOND
     1     1     2    2
     2     2     3   am
     3     2    22    1
     4     3     4    1
     5     3    28    1
     6     4     5    1
     7     4    10    1
     8     4     6    1
     9     6     7    1
    10     6    29    1
    11     6    30    1
    12     7     8    1
    13     7    31    1
    14     7    32    1
    15     8     9    1
    16     8    33    1
    17     8    34    1
    18     9    10    1
    19     9    35    1
    20     9    36    1
    21    10    11    1
    22    10    12    1
    23    12    13    1
    24    12    37    1
    25    13    21   ar
    26    13    14   ar
    27    14    15   ar
    28    14    38    1
    29    15    16   ar
    30    15    39    1
    31    16    17   ar
    32    17    18    1
    33    17    21   ar
    34    18    20    1
    35    18    19    1
    36    18    40    1
    37    19    20    1
    38    19    41    1
    39    19    42    1
    40    20    43    1
    41    20    44    1
    42    22    23    1
    43    22    25    1
    44    22    24    1
    45    24    25    1
    46    24    45    1
    47    24    46    1
    48    25    26    1
    49    25    27    1
@<TRIPOS>SUBSTRUCTURE
     1 ZINC001045463759        1 TEMP              0 ****  ****    0 ROOT


##########                                Name:    ZINC000611836474
##########                DOCK_Rotatable_Bonds:                   7
##########                         Heavy_Atoms:                  22
##########                    Molecular_Weight:             366.258
##########                DOCK_Rotatable_Bonds:                   7
##########                       Formal_Charge:          -0.0300004
##########                     HBond_Acceptors:                   5
##########                        HBond_Donors:                   1
##########                         Heavy_Atoms:                  22
##########                          Grid_Score:          -32.215488
##########                     Grid_vdw_energy:          -33.052723
##########                      Grid_es_energy:            0.837234
##########           Internal_energy_repulsive:            9.994303

@<TRIPOS>MOLECULE
ZINC000611836474
 42 43 1 0 0
SMALL
USER_CHARGES


@<TRIPOS>ATOM
      1 C1         -0.4017   -1.5876   47.7811 C.3     1  ZINC000611836474   -0.1500
      2 C2         -0.2374   -0.1910   48.3842 C.3     1  ZINC000611836474   -0.1400
      3 C3         -1.6158    0.4382   48.5966 C.3     1  ZINC000611836474    0.1300
      4 N4         -1.4581    1.7794   49.1644 N.pl3   1  ZINC000611836474   -0.3900
      5 N5         -0.3658    2.6342   48.9686 N.2     1  ZINC000611836474   -0.2900
      6 C6         -0.5838    3.7406   49.6322 C.2     1  ZINC000611836474    0.0600
      7 C7         -1.8205    3.6317   50.2740 C.2     1  ZINC000611836474   -0.2800
      8 C8         -2.3440    2.4136   49.9658 C.2     1  ZINC000611836474    0.3000
      9 N9         -3.5680    1.9080   50.4036 N.am    1  ZINC000611836474   -0.6500
     10 C10        -4.6599    2.6980   50.4100 C.2     1  ZINC000611836474    0.5200
     11 O11        -4.5787    3.8482   50.0335 O.2     1  ZINC000611836474   -0.4700
     12 C12        -5.9820    2.1522   50.8847 C.3     1  ZINC000611836474    0.0700
     13 H13        -6.3008    1.3463   50.2237 H       1  ZINC000611836474    0.1100
     14 C14        -7.0290    3.2677   50.8705 C.3     1  ZINC000611836474   -0.1800
     15 O15        -5.8398    1.6493   52.2147 O.3     1  ZINC000611836474   -0.2700
     16 C16        -6.8942    0.9652   52.7318 C.ar    1  ZINC000611836474    0.1500
     17 C17        -7.4199   -0.1210   52.0485 C.ar    1  ZINC000611836474   -0.2000
     18 C18        -8.4921   -0.8150   52.5761 C.ar    1  ZINC000611836474   -0.0600
     19 C19        -9.0414   -0.4273   53.7840 C.ar    1  ZINC000611836474   -0.1100
     20 C20       -10.2109   -1.1859   54.3565 C.3     1  ZINC000611836474   -0.1100
     21 C21        -8.5192    0.6551   54.4681 C.ar    1  ZINC000611836474   -0.0500
     22 C22        -7.4434    1.3491   53.9478 C.ar    1  ZINC000611836474   -0.1200
     23 Br23       -6.7296    2.8292   54.8835 Br      1  ZINC000611836474   -0.0300
     24 H24         0.5803   -2.0357   47.6297 H       1  ZINC000611836474    0.0600
     25 H25        -0.9846   -2.2101   48.4599 H       1  ZINC000611836474    0.0600
     26 H26        -0.9179   -1.5115   46.8240 H       1  ZINC000611836474    0.0600
     27 H27         0.2788   -0.2670   49.3411 H       1  ZINC000611836474    0.0800
     28 H28         0.3455    0.4316   47.7054 H       1  ZINC000611836474    0.0600
     29 H29        -2.1350    0.5071   47.6407 H       1  ZINC000611836474    0.0800
     30 H30        -2.1959   -0.1805   49.2814 H       1  ZINC000611836474    0.1000
     31 H31         0.0789    4.5921   49.6769 H       1  ZINC000611836474    0.1900
     32 H32        -2.2805    4.3818   50.9001 H       1  ZINC000611836474    0.1700
     33 H33        -3.6333    0.9878   50.7034 H       1  ZINC000611836474    0.4100
     34 H34        -7.1375    3.6513   49.8560 H       1  ZINC000611836474    0.0800
     35 H35        -7.9852    2.8728   51.2139 H       1  ZINC000611836474    0.0800
     36 H36        -6.7103    4.0736   51.5316 H       1  ZINC000611836474    0.0800
     37 H37        -6.9919   -0.4241   51.1043 H       1  ZINC000611836474    0.1400
     38 H38        -8.9016   -1.6609   52.0441 H       1  ZINC000611836474    0.1300
     39 H39        -9.8449   -1.9940   54.9898 H       1  ZINC000611836474    0.0700
     40 H40       -10.8271   -0.5102   54.9495 H       1  ZINC000611836474    0.0700
     41 H41       -10.8066   -1.6023   53.5441 H       1  ZINC000611836474    0.0700
     42 H42        -8.9501    0.9560   55.4117 H       1  ZINC000611836474    0.1400
@<TRIPOS>BOND
     1     1     2    1
     2     1    24    1
     3     1    25    1
     4     1    26    1
     5     2     3    1
     6     2    27    1
     7     2    28    1
     8     3     4    1
     9     3    29    1
    10     3    30    1
    11     4     8    1
    12     4     5    1
    13     5     6    2
    14     6     7    1
    15     6    31    1
    16     7     8    2
    17     7    32    1
    18     8     9    1
    19     9    10   am
    20     9    33    1
    21    10    11    2
    22    10    12    1
    23    12    13    1
    24    12    14    1
    25    12    15    1
    26    14    34    1
    27    14    35    1
    28    14    36    1
    29    15    16    1
    30    16    22   ar
    31    16    17   ar
    32    17    18   ar
    33    17    37    1
    34    18    19   ar
    35    18    38    1
    36    19    20    1
    37    19    21   ar
    38    20    39    1
    39    20    40    1
    40    20    41    1
    41    21    22   ar
    42    21    42    1
    43    22    23    1
@<TRIPOS>SUBSTRUCTURE
     1 ZINC000611836474        1 TEMP              0 ****  ****    0 ROOT


##########                                Name:    ZINC000446721380
##########                DOCK_Rotatable_Bonds:                   8
##########                         Heavy_Atoms:                  26
##########                    Molecular_Weight:             419.318
##########                DOCK_Rotatable_Bonds:                   8
##########                       Formal_Charge:           0.0199992
##########                     HBond_Acceptors:                   5
##########                        HBond_Donors:                   2
##########                         Heavy_Atoms:                  26
##########                          Grid_Score:          -32.212742
##########                     Grid_vdw_energy:          -30.899567
##########                      Grid_es_energy:           -1.313177
##########           Internal_energy_repulsive:          175.731827

@<TRIPOS>MOLECULE
ZINC000446721380
 49 51 1 0 0
SMALL
USER_CHARGES


@<TRIPOS>ATOM
      1 C1         -1.3305   -0.1254   43.8601 C.3     1  ZINC000446721380   -0.1200
      2 C2         -0.9540    0.0568   45.3079 C.ar    1  ZINC000446721380   -0.0300
      3 C3         -1.3941   -0.8489   46.2551 C.ar    1  ZINC000446721380   -0.1600
      4 C4         -1.0503   -0.6845   47.5845 C.ar    1  ZINC000446721380   -0.0500
      5 C5         -0.2660    0.3855   47.9691 C.ar    1  ZINC000446721380   -0.1500
      6 C6          0.1086    0.5637   49.4178 C.3     1  ZINC000446721380    0.1900
      7 N7         -0.4796    1.8057   49.9250 N.am    1  ZINC000446721380   -0.7300
      8 C8         -1.8179    1.9653   49.9287 C.2     1  ZINC000446721380    0.7100
      9 O9         -2.5371    1.0777   49.5125 O.2     1  ZINC000446721380   -0.5700
     10 N10        -2.3589    3.1087   50.3939 N.am    1  ZINC000446721380   -0.6900
     11 C11        -3.7490    3.2744   50.3978 C.ar    1  ZINC000446721380    0.2000
     12 C12        -4.5717    2.2593   49.9292 C.ar    1  ZINC000446721380   -0.1200
     13 C13        -5.9433    2.4256   49.9347 C.ar    1  ZINC000446721380   -0.0800
     14 C14        -6.4970    3.6013   50.4062 C.ar    1  ZINC000446721380   -0.1300
     15 C15        -5.6805    4.6152   50.8735 C.ar    1  ZINC000446721380   -0.0700
     16 C16        -4.3084    4.4531   50.8761 C.ar    1  ZINC000446721380   -0.1300
     17 Br17       -3.1926    5.8393   51.5157 Br      1  ZINC000446721380   -0.0500
     18 C18         0.1770    1.2958   47.0201 C.ar    1  ZINC000446721380    0.1500
     19 O19         0.9491    2.3491   47.3959 O.3     1  ZINC000446721380   -0.3100
     20 C20         2.2121    2.4932   46.7432 C.3     1  ZINC000446721380    0.0700
     21 C21         3.1271    1.3332   47.1412 C.3     1  ZINC000446721380   -0.1200
     22 H22         2.6630    0.3793   46.8907 H       1  ZINC000446721380    0.1000
     23 C23         3.4551    1.3959   48.6528 C.3     1  ZINC000446721380   -0.1500
     24 C24         4.9570    1.0130   48.6753 C.3     1  ZINC000446721380    0.0500
     25 O25         5.4820    1.6394   47.4851 O.3     1  ZINC000446721380   -0.3800
     26 C26         4.4972    1.4649   46.4483 C.3     1  ZINC000446721380    0.0500
     27 C27        -0.1646    1.1256   45.6866 C.ar    1  ZINC000446721380   -0.2100
     28 H28        -0.5789   -0.7392   43.3637 H       1  ZINC000446721380    0.0800
     29 H29        -2.3012   -0.6170   43.7962 H       1  ZINC000446721380    0.0700
     30 H30        -1.3837    0.8484   43.3732 H       1  ZINC000446721380    0.0700
     31 H31        -2.0077   -1.6859   45.9565 H       1  ZINC000446721380    0.1300
     32 H32        -1.3957   -1.3932   48.3226 H       1  ZINC000446721380    0.1300
     33 H33        -0.2679   -0.2796   49.9968 H       1  ZINC000446721380    0.0800
     34 H34         1.1937    0.6116   49.5092 H       1  ZINC000446721380    0.0800
     35 H35         0.0941    2.5134   50.2583 H       1  ZINC000446721380    0.4000
     36 H36        -1.7852    3.8168   50.7261 H       1  ZINC000446721380    0.4100
     37 H37        -4.1401    1.3406   49.5604 H       1  ZINC000446721380    0.1500
     38 H38        -6.5837    1.6362   49.5698 H       1  ZINC000446721380    0.1300
     39 H39        -7.5695    3.7287   50.4093 H       1  ZINC000446721380    0.1300
     40 H40        -6.1161    5.5327   51.2405 H       1  ZINC000446721380    0.1400
     41 H41         2.0657    2.4863   45.6631 H       1  ZINC000446721380    0.0700
     42 H42         2.6700    3.4362   47.0418 H       1  ZINC000446721380    0.0700
     43 H43         3.3046    2.4028   49.0422 H       1  ZINC000446721380    0.0800
     44 H44         2.8608    0.6719   49.2102 H       1  ZINC000446721380    0.0900
     45 H45         5.4419    1.4134   49.5655 H       1  ZINC000446721380    0.1000
     46 H46         5.0780   -0.0691   48.6248 H       1  ZINC000446721380    0.0600
     47 H47         4.7156    0.5621   45.8779 H       1  ZINC000446721380    0.0600
     48 H48         4.4967    2.3320   45.7879 H       1  ZINC000446721380    0.0900
     49 H49         0.1790    1.8328   44.9462 H       1  ZINC000446721380    0.1300
@<TRIPOS>BOND
     1     1     2    1
     2     1    28    1
     3     1    29    1
     4     1    30    1
     5     2    27   ar
     6     2     3   ar
     7     3     4   ar
     8     3    31    1
     9     4     5   ar
    10     4    32    1
    11     5     6    1
    12     5    18   ar
    13     6     7    1
    14     6    33    1
    15     6    34    1
    16     7     8   am
    17     7    35    1
    18     8     9    2
    19     8    10   am
    20    10    11    1
    21    10    36    1
    22    11    16   ar
    23    11    12   ar
    24    12    13   ar
    25    12    37    1
    26    13    14   ar
    27    13    38    1
    28    14    15   ar
    29    14    39    1
    30    15    16   ar
    31    15    40    1
    32    16    17    1
    33    18    19    1
    34    18    27   ar
    35    19    20    1
    36    20    21    1
    37    20    41    1
    38    20    42    1
    39    21    22    1
    40    21    26    1
    41    21    23    1
    42    23    24    1
    43    23    43    1
    44    23    44    1
    45    24    25    1
    46    24    45    1
    47    24    46    1
    48    25    26    1
    49    26    47    1
    50    26    48    1
    51    27    49    1
@<TRIPOS>SUBSTRUCTURE
     1 ZINC000446721380        1 TEMP              0 ****  ****    0 ROOT


##########                                Name:    ZINC001271977984
##########                DOCK_Rotatable_Bonds:                   7
##########                         Heavy_Atoms:                  24
##########                    Molecular_Weight:             328.371
##########                DOCK_Rotatable_Bonds:                   7
##########                       Formal_Charge:           0.0200001
##########                     HBond_Acceptors:                   7
##########                        HBond_Donors:                   0
##########                         Heavy_Atoms:                  24
##########                          Grid_Score:          -32.210503
##########                     Grid_vdw_energy:          -30.839443
##########                      Grid_es_energy:           -1.371058
##########           Internal_energy_repulsive:           21.551832

@<TRIPOS>MOLECULE
ZINC001271977984
 44 46 1 0 0
SMALL
USER_CHARGES


@<TRIPOS>ATOM
      1 C1          0.1226    3.0783   50.6700 C.3     1  ZINC001271977984   -0.1800
      2 C2         -0.6796    2.0196   49.9108 C.3     1  ZINC001271977984    0.1700
      3 H3         -0.4399    1.0314   50.3034 H       1  ZINC001271977984    0.1100
      4 C4         -2.1527    2.2853   50.0843 C.2     1  ZINC001271977984    0.2700
      5 N5         -2.6949    3.4653   50.1218 N.2     1  ZINC001271977984   -0.4700
      6 C6         -4.0380    3.3256   50.2889 C.ar    1  ZINC001271977984    0.0200
      7 C7         -5.0971    4.2279   50.3964 C.ar    1  ZINC001271977984   -0.0600
      8 C8         -6.3805    3.7577   50.5647 C.ar    1  ZINC001271977984   -0.1200
      9 C9         -6.6262    2.3942   50.6277 C.ar    1  ZINC001271977984   -0.0900
     10 C10        -5.5889    1.4909   50.5233 C.ar    1  ZINC001271977984   -0.0900
     11 C11        -4.2908    1.9465   50.3531 C.ar    1  ZINC001271977984    0.0100
     12 O12        -3.0930    1.3365   50.2165 O.3     1  ZINC001271977984   -0.2100
     13 N13        -0.3367    2.0758   48.4834 N.3     1  ZINC001271977984   -0.5300
     14 C14         1.1183    2.0198   48.2890 C.3     1  ZINC001271977984    0.0000
     15 C15        -1.0091    1.0036   47.7378 C.3     1  ZINC001271977984    0.0400
     16 C16        -1.7974    1.6084   46.5743 C.3     1  ZINC001271977984    0.1200
     17 N17        -1.0440    1.4324   45.3302 N.am    1  ZINC001271977984   -0.6000
     18 C18        -0.1942    2.5155   44.8290 C.3     1  ZINC001271977984    0.0800
     19 C19        -1.1326    0.2741   44.6467 C.2     1  ZINC001271977984    0.6000
     20 O20        -1.8381   -0.6248   45.0628 O.2     1  ZINC001271977984   -0.5300
     21 C21        -0.3745    0.0971   43.3949 C.2     1  ZINC001271977984   -0.0800
     22 C22         0.9445    0.3714   43.2029 C.2     1  ZINC001271977984    0.0200
     23 O23         1.2258    0.0667   41.9259 O.3     1  ZINC001271977984   -0.2000
     24 C24         0.1047   -0.3848   41.3459 C.2     1  ZINC001271977984    0.1800
     25 N25        -0.8606   -0.3768   42.2157 N.2     1  ZINC001271977984   -0.4600
     26 H26         1.1881    2.8862   50.5445 H       1  ZINC001271977984    0.0800
     27 H27        -0.1171    4.0665   50.2774 H       1  ZINC001271977984    0.0800
     28 H28        -0.1318    3.0366   51.7291 H       1  ZINC001271977984    0.0700
     29 H29        -4.9110    5.2906   50.3482 H       1  ZINC001271977984    0.1400
     30 H30        -7.2009    4.4551   50.6484 H       1  ZINC001271977984    0.1400
     31 H31        -7.6369    2.0372   50.7599 H       1  ZINC001271977984    0.1400
     32 H32        -5.7879    0.4305   50.5733 H       1  ZINC001271977984    0.1400
     33 H33         1.5049    1.0893   48.7050 H       1  ZINC001271977984    0.0300
     34 H34         1.3444    2.0631   47.2236 H       1  ZINC001271977984    0.0700
     35 H35         1.5852    2.8653   48.7943 H       1  ZINC001271977984    0.1100
     36 H36        -0.2643    0.3086   47.3497 H       1  ZINC001271977984    0.0500
     37 H37        -1.6911    0.4720   48.4014 H       1  ZINC001271977984    0.0800
     38 H38        -2.7615    1.1071   46.4892 H       1  ZINC001271977984    0.0900
     39 H39        -1.9553    2.6714   46.7560 H       1  ZINC001271977984    0.0900
     40 H40         0.8312    2.3569   45.1629 H       1  ZINC001271977984    0.0600
     41 H41        -0.2241    2.5261   43.7395 H       1  ZINC001271977984    0.0900
     42 H42        -0.5576    3.4692   45.2118 H       1  ZINC001271977984    0.0700
     43 H43         1.6338    0.7605   43.9376 H       1  ZINC001271977984    0.2300
     44 H44         0.0184   -0.7076   40.3189 H       1  ZINC001271977984    0.2600
@<TRIPOS>BOND
     1     1     2    1
     2     1    26    1
     3     1    27    1
     4     1    28    1
     5     2     3    1
     6     2     4    1
     7     2    13    1
     8     4    12    1
     9     4     5    2
    10     5     6    1
    11     6    11   ar
    12     6     7   ar
    13     7     8   ar
    14     7    29    1
    15     8     9   ar
    16     8    30    1
    17     9    10   ar
    18     9    31    1
    19    10    11   ar
    20    10    32    1
    21    11    12    1
    22    13    14    1
    23    13    15    1
    24    14    33    1
    25    14    34    1
    26    14    35    1
    27    15    16    1
    28    15    36    1
    29    15    37    1
    30    16    17    1
    31    16    38    1
    32    16    39    1
    33    17    18    1
    34    17    19   am
    35    18    40    1
    36    18    41    1
    37    18    42    1
    38    19    20    2
    39    19    21    1
    40    21    25    1
    41    21    22    2
    42    22    23    1
    43    22    43    1
    44    23    24    1
    45    24    25    2
    46    24    44    1
@<TRIPOS>SUBSTRUCTURE
     1 ZINC001271977984        1 TEMP              0 ****  ****    0 ROOT


##########                                Name:    ZINC000821442454
##########                DOCK_Rotatable_Bonds:                   6
##########                         Heavy_Atoms:                  26
##########                    Molecular_Weight:             398.873
##########                DOCK_Rotatable_Bonds:                   6
##########                       Formal_Charge:          -0.0399996
##########                     HBond_Acceptors:                  11
##########                        HBond_Donors:                   2
##########                         Heavy_Atoms:                  26
##########                          Grid_Score:          -32.192783
##########                     Grid_vdw_energy:          -30.589151
##########                      Grid_es_energy:           -1.603632
##########           Internal_energy_repulsive:           12.488601

@<TRIPOS>MOLECULE
ZINC000821442454
 45 47 1 0 0
SMALL
USER_CHARGES


@<TRIPOS>ATOM
      1 C1          2.1396    4.1975   52.7880 C.3     1  ZINC000821442454   -0.1500
      2 C2          1.0063    3.9334   51.7946 C.3     1  ZINC000821442454   -0.6300
      3 S3         -0.5425    4.6142   52.4490 S.o2    1  ZINC000821442454    2.6000
      4 O4         -0.9807    3.8646   53.5738 O.2     1  ZINC000821442454   -0.9500
      5 O5         -0.4846    6.0334   52.4916 O.2     1  ZINC000821442454   -0.9500
      6 N6         -1.6657    4.2863   51.2771 N.am    1  ZINC000821442454   -1.0000
      7 C7         -3.0672    4.6926   51.4490 C.3     1  ZINC000821442454    0.1100
      8 C8         -3.9639    3.4667   51.2494 C.3     1  ZINC000821442454   -0.1300
      9 C9         -3.6560    2.8298   49.8924 C.3     1  ZINC000821442454   -0.1100
     10 C10        -2.1965    2.3707   49.8619 C.3     1  ZINC000821442454   -0.1200
     11 H11        -2.0223    1.6579   50.6679 H       1  ZINC000821442454    0.1100
     12 C12        -1.9033    1.7139   48.5375 C.2     1  ZINC000821442454    0.5300
     13 O13        -2.2792    0.5803   48.3264 O.2     1  ZINC000821442454   -0.5100
     14 N14        -1.2233    2.3863   47.5878 N.am    1  ZINC000821442454   -0.6700
     15 C15        -0.9512    1.7768   46.3586 C.ar    1  ZINC000821442454    0.1800
     16 C16        -1.9910    1.4769   45.4878 C.ar    1  ZINC000821442454   -0.1200
     17 C17        -1.7251    0.8764   44.2750 C.ar    1  ZINC000821442454   -0.0500
     18 C18        -0.4122    0.5703   43.9228 C.ar    1  ZINC000821442454   -0.0300
     19 C19        -0.1242   -0.0755   42.6179 C.2     1  ZINC000821442454    0.2200
     20 N20        -0.8605   -0.9843   42.0096 N.2     1  ZINC000821442454   -0.2900
     21 N21        -0.2737   -1.2916   40.9041 N.pl3   1  ZINC000821442454   -0.2200
     22 N22         0.8105   -0.6066   40.7926 N.2     1  ZINC000821442454   -0.0400
     23 N23         0.9322    0.1559   41.8257 N.2     1  ZINC000821442454   -0.2700
     24 C24         0.6304    0.8717   44.7974 C.ar    1  ZINC000821442454   -0.0500
     25 C25         0.3608    1.4771   46.0073 C.ar    1  ZINC000821442454   -0.0800
     26 Cl26        1.6585    1.8531   47.0975 Cl      1  ZINC000821442454   -0.0500
     27 C27        -1.2785    3.5892   50.0431 C.3     1  ZINC000821442454    0.1400
     28 H28         2.2491    5.2717   52.9370 H       1  ZINC000821442454    0.0700
     29 H29         1.9066    3.7207   53.7401 H       1  ZINC000821442454    0.0700
     30 H30         3.0702    3.7884   52.3948 H       1  ZINC000821442454    0.0800
     31 H31         1.2394    4.4103   50.8425 H       1  ZINC000821442454    0.1300
     32 H32         0.8968    2.8591   51.6457 H       1  ZINC000821442454    0.1300
     33 H33        -3.2116    5.0915   52.4530 H       1  ZINC000821442454    0.1000
     34 H34        -3.3200    5.4542   50.7112 H       1  ZINC000821442454    0.0700
     35 H35        -3.7731    2.7436   52.0424 H       1  ZINC000821442454    0.0700
     36 H36        -5.0098    3.7724   51.2789 H       1  ZINC000821442454    0.0800
     37 H37        -4.3099    1.9716   49.7372 H       1  ZINC000821442454    0.0700
     38 H38        -3.8232    3.5611   49.1017 H       1  ZINC000821442454    0.0800
     39 H39        -0.9227    3.2930   47.7567 H       1  ZINC000821442454    0.4200
     40 H40        -3.0087    1.7139   45.7609 H       1  ZINC000821442454    0.1600
     41 H41        -2.5341    0.6432   43.5987 H       1  ZINC000821442454    0.1500
     42 H42        -0.5980   -1.9379   40.2575 H       1  ZINC000821442454    0.4800
     43 H43         1.6487    0.6352   44.5264 H       1  ZINC000821442454    0.1500
     44 H44        -1.3867    4.2584   49.1896 H       1  ZINC000821442454    0.0800
     45 H45        -0.2430    3.2581   50.1215 H       1  ZINC000821442454    0.1000
@<TRIPOS>BOND
     1     1     2    1
     2     1    28    1
     3     1    29    1
     4     1    30    1
     5     2     3    1
     6     2    31    1
     7     2    32    1
     8     3     4    2
     9     3     5    2
    10     3     6   am
    11     6    27    1
    12     6     7    1
    13     7     8    1
    14     7    33    1
    15     7    34    1
    16     8     9    1
    17     8    35    1
    18     8    36    1
    19     9    10    1
    20     9    37    1
    21     9    38    1
    22    10    11    1
    23    10    12    1
    24    10    27    1
    25    12    13    2
    26    12    14   am
    27    14    15    1
    28    14    39    1
    29    15    25   ar
    30    15    16   ar
    31    16    17   ar
    32    16    40    1
    33    17    18   ar
    34    17    41    1
    35    18    19    1
    36    18    24   ar
    37    19    23    1
    38    19    20    2
    39    20    21    1
    40    21    22    1
    41    21    42    1
    42    22    23    2
    43    24    25   ar
    44    24    43    1
    45    25    26    1
    46    27    44    1
    47    27    45    1
@<TRIPOS>SUBSTRUCTURE
     1 ZINC000821442454        1 TEMP              0 ****  ****    0 ROOT


##########                                Name:    ZINC001141221454
##########                DOCK_Rotatable_Bonds:                   7
##########                         Heavy_Atoms:                  27
##########                    Molecular_Weight:             369.439
##########                DOCK_Rotatable_Bonds:                   7
##########                       Formal_Charge:          0.00999935
##########                     HBond_Acceptors:                   6
##########                        HBond_Donors:                   1
##########                         Heavy_Atoms:                  27
##########                          Grid_Score:          -32.178135
##########                     Grid_vdw_energy:          -31.412344
##########                      Grid_es_energy:           -0.765793
##########           Internal_energy_repulsive:           14.889287

@<TRIPOS>MOLECULE
ZINC001141221454
 51 54 1 0 0
SMALL
USER_CHARGES


@<TRIPOS>ATOM
      1 C1         -1.3919   -0.2974   43.5375 C.3     1  ZINC001141221454    0.0300
      2 O2         -1.5671    0.7950   44.4421 O.3     1  ZINC001141221454   -0.3100
      3 C3         -1.4030    0.5324   45.7659 C.ar    1  ZINC001141221454    0.0900
      4 C4         -1.2842   -0.7771   46.2046 C.ar    1  ZINC001141221454   -0.1800
      5 C5         -1.1169   -1.0418   47.5510 C.ar    1  ZINC001141221454   -0.0900
      6 C6         -1.0681   -0.0023   48.4608 C.ar    1  ZINC001141221454   -0.1200
      7 C7         -1.1867    1.3056   48.0275 C.ar    1  ZINC001141221454   -0.0800
      8 C8         -1.1334    2.4363   49.0223 C.3     1  ZINC001141221454    0.0900
      9 N9         -2.4992    2.8058   49.4172 N.3     1  ZINC001141221454   -0.5100
     10 C10        -3.2269    1.6366   49.9752 C.3     1  ZINC001141221454    0.0300
     11 C11        -4.3691    2.2858   50.7993 C.3     1  ZINC001141221454   -0.0700
     12 C12        -3.6910    3.5342   51.3930 C.3     1  ZINC001141221454   -0.1000
     13 C13        -3.6369    3.7618   52.8981 C.3     1  ZINC001141221454   -0.1400
     14 C14        -4.5109    4.6571   52.0149 C.3     1  ZINC001141221454   -0.1800
     15 H15        -4.1743    5.6798   51.8452 H       1  ZINC001141221454    0.1300
     16 C16        -6.0040    4.4686   52.0940 C.2     1  ZINC001141221454    0.5500
     17 O17        -6.6727    4.4927   51.0824 O.2     1  ZINC001141221454   -0.5300
     18 N18        -6.5961    4.2731   53.2887 N.am    1  ZINC001141221454   -0.7300
     19 C19        -8.0478    4.0916   53.3659 C.3     1  ZINC001141221454    0.1700
     20 C20        -8.3773    2.6252   53.2550 C.ar    1  ZINC001141221454   -0.1600
     21 C21        -9.5795    2.2160   52.6990 C.ar    1  ZINC001141221454   -0.0600
     22 C22        -9.8398    0.8564   52.6170 C.ar    1  ZINC001141221454   -0.1700
     23 C23        -8.8992   -0.0390   53.0889 C.ar    1  ZINC001141221454    0.1100
     24 N24        -7.7656    0.3864   53.6120 N.ar    1  ZINC001141221454   -0.4800
     25 C25        -7.4822    1.6710   53.7013 C.ar    1  ZINC001141221454    0.1200
     26 C26        -2.4837    3.8239   50.4926 C.3     1  ZINC001141221454    0.0700
     27 C27        -1.3484    1.5766   46.6811 C.ar    1  ZINC001141221454    0.0900
     28 F28        -1.4643    2.8542   46.2573 F       1  ZINC001141221454   -0.1300
     29 H29        -1.5507    0.0478   42.5159 H       1  ZINC001141221454    0.1000
     30 H30        -0.3801   -0.6911   43.6349 H       1  ZINC001141221454    0.0600
     31 H31        -2.1112   -1.0821   43.7719 H       1  ZINC001141221454    0.0600
     32 H32        -1.3225   -1.5903   45.4950 H       1  ZINC001141221454    0.1400
     33 H33        -1.0248   -2.0622   47.8925 H       1  ZINC001141221454    0.1300
     34 H34        -0.9373   -0.2121   49.5121 H       1  ZINC001141221454    0.1300
     35 H35        -0.5737    2.1199   49.9024 H       1  ZINC001141221454    0.0600
     36 H36        -0.6411    3.2965   48.5685 H       1  ZINC001141221454    0.0900
     37 H37        -3.6338    1.0193   49.1742 H       1  ZINC001141221454    0.0800
     38 H38        -2.5734    1.0492   50.6202 H       1  ZINC001141221454    0.0500
     39 H39        -5.2000    2.5681   50.1527 H       1  ZINC001141221454    0.0900
     40 H40        -4.7043    1.6150   51.5904 H       1  ZINC001141221454    0.0700
     41 H41        -4.1420    3.0362   53.5355 H       1  ZINC001141221454    0.1000
     42 H42        -2.7255    4.1959   53.3093 H       1  ZINC001141221454    0.1100
     43 H43        -6.0611    4.2525   54.0976 H       1  ZINC001141221454    0.4000
     44 H44        -8.4117    4.4747   54.3192 H       1  ZINC001141221454    0.0800
     45 H45        -8.5256    4.6340   52.5500 H       1  ZINC001141221454    0.0800
     46 H46       -10.2963    2.9389   52.3385 H       1  ZINC001141221454    0.1400
     47 H47       -10.7663    0.5019   52.1900 H       1  ZINC001141221454    0.1400
     48 H48        -9.0945   -1.0994   53.0290 H       1  ZINC001141221454    0.1600
     49 H49        -6.5437    1.9816   54.1360 H       1  ZINC001141221454    0.1600
     50 H50        -1.5615    3.7441   51.0683 H       1  ZINC001141221454    0.0500
     51 H51        -2.5701    4.8218   50.0627 H       1  ZINC001141221454    0.0900
@<TRIPOS>BOND
     1     1     2    1
     2     1    29    1
     3     1    30    1
     4     1    31    1
     5     2     3    1
     6     3    27   ar
     7     3     4   ar
     8     4     5   ar
     9     4    32    1
    10     5     6   ar
    11     5    33    1
    12     6     7   ar
    13     6    34    1
    14     7     8    1
    15     7    27   ar
    16     8     9    1
    17     8    35    1
    18     8    36    1
    19     9    26    1
    20     9    10    1
    21    10    11    1
    22    10    37    1
    23    10    38    1
    24    11    12    1
    25    11    39    1
    26    11    40    1
    27    12    14    1
    28    12    13    1
    29    12    26    1
    30    13    14    1
    31    13    41    1
    32    13    42    1
    33    14    15    1
    34    14    16    1
    35    16    17    2
    36    16    18   am
    37    18    19    1
    38    18    43    1
    39    19    20    1
    40    19    44    1
    41    19    45    1
    42    20    25   ar
    43    20    21   ar
    44    21    22   ar
    45    21    46    1
    46    22    23   ar
    47    22    47    1
    48    23    24   ar
    49    23    48    1
    50    24    25   ar
    51    25    49    1
    52    26    50    1
    53    26    51    1
    54    27    28    1
@<TRIPOS>SUBSTRUCTURE
     1 ZINC001141221454        1 TEMP              0 ****  ****    0 ROOT


##########                                Name:    ZINC000518242403
##########                DOCK_Rotatable_Bonds:                   6
##########                         Heavy_Atoms:                  27
##########                    Molecular_Weight:             370.405
##########                DOCK_Rotatable_Bonds:                   6
##########                       Formal_Charge:          -0.0200004
##########                     HBond_Acceptors:                   7
##########                        HBond_Donors:                   1
##########                         Heavy_Atoms:                  27
##########                          Grid_Score:          -32.145020
##########                     Grid_vdw_energy:          -31.625240
##########                      Grid_es_energy:           -0.519779
##########           Internal_energy_repulsive:           12.515337

@<TRIPOS>MOLECULE
ZINC000518242403
 49 52 1 0 0
SMALL
USER_CHARGES


@<TRIPOS>ATOM
      1 C1          0.1514    0.1867   49.2698 C.3     1  ZINC000518242403   -0.1800
      2 C2         -1.0354   -0.5218   48.6137 C.3     1  ZINC000518242403    0.1000
      3 N3         -1.7072    0.4001   47.6946 N.am    1  ZINC000518242403   -0.6200
      4 C4         -1.4709    0.2986   46.2524 C.3     1  ZINC000518242403    0.1500
      5 C5         -0.1430    0.9740   45.9043 C.3     1  ZINC000518242403    0.0300
      6 H6          0.6764    0.4482   46.3946 H       1  ZINC000518242403    0.0900
      7 C7          0.0653    0.9534   44.3839 C.3     1  ZINC000518242403    0.0300
      8 O8          1.3070    1.6038   44.0927 O.3     1  ZINC000518242403   -0.3000
      9 C9          1.5389    2.7887   44.7210 C.ar    1  ZINC000518242403    0.0500
     10 C10         2.5194    3.6382   44.2316 C.ar    1  ZINC000518242403   -0.1100
     11 C11         2.7686    4.8436   44.8611 C.ar    1  ZINC000518242403   -0.1200
     12 C12         2.0413    5.2053   45.9793 C.ar    1  ZINC000518242403   -0.1200
     13 C13         1.0612    4.3636   46.4714 C.ar    1  ZINC000518242403   -0.1100
     14 C14         0.8054    3.1537   45.8442 C.ar    1  ZINC000518242403    0.0500
     15 O15        -0.1677    2.3389   46.3361 O.3     1  ZINC000518242403   -0.3000
     16 C16        -2.5428    1.3417   48.1759 C.2     1  ZINC000518242403    0.7100
     17 O17        -3.1017    2.1061   47.4130 O.2     1  ZINC000518242403   -0.5700
     18 N18        -2.7590    1.4363   49.5028 N.am    1  ZINC000518242403   -0.6800
     19 C19        -3.6278    2.4153   50.0033 C.ar    1  ZINC000518242403    0.1700
     20 C20        -4.9969    2.2913   49.8125 C.ar    1  ZINC000518242403   -0.1000
     21 C21        -5.8552    3.2590   50.3077 C.ar    1  ZINC000518242403    0.0500
     22 C22        -5.3418    4.3552   50.9965 C.ar    1  ZINC000518242403    0.0200
     23 C23        -3.9744    4.4756   51.1842 C.ar    1  ZINC000518242403   -0.0800
     24 C24        -3.1194    3.5066   50.6950 C.ar    1  ZINC000518242403   -0.1000
     25 C25        -1.6326    3.6409   50.9011 C.3     1  ZINC000518242403   -0.1100
     26 O26        -6.3808    5.1557   51.3782 O.3     1  ZINC000518242403   -0.3100
     27 C27        -7.4972    4.7504   50.5642 C.3     1  ZINC000518242403    0.2100
     28 O28        -7.2146    3.3723   50.2578 O.3     1  ZINC000518242403   -0.3100
     29 H29         0.8532    0.5084   48.5003 H       1  ZINC000518242403    0.0600
     30 H30        -0.2049    1.0557   49.8229 H       1  ZINC000518242403    0.0600
     31 H31         0.6513   -0.4994   49.9536 H       1  ZINC000518242403    0.0700
     32 H32        -0.6790   -1.3909   48.0606 H       1  ZINC000518242403    0.1000
     33 H33        -1.7371   -0.8436   49.3831 H       1  ZINC000518242403    0.0700
     34 H34        -1.4309   -0.7517   45.9637 H       1  ZINC000518242403    0.1100
     35 H35        -2.2812    0.7923   45.7158 H       1  ZINC000518242403    0.0900
     36 H36         0.0986   -0.0774   44.0314 H       1  ZINC000518242403    0.1300
     37 H37        -0.7513    1.4839   43.8940 H       1  ZINC000518242403    0.0800
     38 H38         3.0892    3.3578   43.3581 H       1  ZINC000518242403    0.1300
     39 H39         3.5326    5.5038   44.4782 H       1  ZINC000518242403    0.1300
     40 H40         2.2391    6.1469   46.4696 H       1  ZINC000518242403    0.1300
     41 H41         0.4944    4.6486   47.3454 H       1  ZINC000518242403    0.1300
     42 H42        -2.3131    0.8266   50.1115 H       1  ZINC000518242403    0.4100
     43 H43        -5.3929    1.4406   49.2777 H       1  ZINC000518242403    0.1500
     44 H44        -3.5764    5.3257   51.7184 H       1  ZINC000518242403    0.1400
     45 H45        -1.3505    3.1586   51.8369 H       1  ZINC000518242403    0.0800
     46 H46        -1.1066    3.1645   50.0737 H       1  ZINC000518242403    0.0700
     47 H47        -1.3654    4.6969   50.9415 H       1  ZINC000518242403    0.0800
     48 H48        -8.4293    4.8352   51.1229 H       1  ZINC000518242403    0.1300
     49 H49        -7.5413    5.3445   49.6514 H       1  ZINC000518242403    0.0900
@<TRIPOS>BOND
     1     1     2    1
     2     1    29    1
     3     1    30    1
     4     1    31    1
     5     2     3    1
     6     2    32    1
     7     2    33    1
     8     3     4    1
     9     3    16   am
    10     4     5    1
    11     4    34    1
    12     4    35    1
    13     5     6    1
    14     5    15    1
    15     5     7    1
    16     7     8    1
    17     7    36    1
    18     7    37    1
    19     8     9    1
    20     9    14   ar
    21     9    10   ar
    22    10    11   ar
    23    10    38    1
    24    11    12   ar
    25    11    39    1
    26    12    13   ar
    27    12    40    1
    28    13    14   ar
    29    13    41    1
    30    14    15    1
    31    16    17    2
    32    16    18   am
    33    18    19    1
    34    18    42    1
    35    19    24   ar
    36    19    20   ar
    37    20    21   ar
    38    20    43    1
    39    21    28    1
    40    21    22   ar
    41    22    23   ar
    42    22    26    1
    43    23    24   ar
    44    23    44    1
    45    24    25    1
    46    25    45    1
    47    25    46    1
    48    25    47    1
    49    26    27    1
    50    27    28    1
    51    27    48    1
    52    27    49    1
@<TRIPOS>SUBSTRUCTURE
     1 ZINC000518242403        1 TEMP              0 ****  ****    0 ROOT


##########                                Name:    ZINC001326371752
##########                DOCK_Rotatable_Bonds:                   5
##########                         Heavy_Atoms:                  25
##########                    Molecular_Weight:             360.397
##########                DOCK_Rotatable_Bonds:                   5
##########                       Formal_Charge:           0.0199999
##########                     HBond_Acceptors:                  10
##########                        HBond_Donors:                   0
##########                         Heavy_Atoms:                  25
##########                          Grid_Score:          -32.118507
##########                     Grid_vdw_energy:          -32.007202
##########                      Grid_es_energy:           -0.111304
##########           Internal_energy_repulsive:           11.091785

@<TRIPOS>MOLECULE
ZINC001326371752
 41 44 1 0 0
SMALL
USER_CHARGES


@<TRIPOS>ATOM
      1 C1         -8.3279    4.1863   50.4135 C.3     1  ZINC001326371752    0.0300
      2 O2         -7.3742    3.2821   50.9749 O.3     1  ZINC001326371752   -0.3800
      3 C3         -7.5478    3.0492   52.3741 C.3     1  ZINC001326371752    0.0500
      4 C4         -6.4266    2.1408   52.8828 C.3     1  ZINC001326371752    0.1200
      5 N5         -5.1418    2.8330   52.7557 N.pl3   1  ZINC001326371752   -0.2800
      6 N6         -4.5965    3.5901   53.6479 N.2     1  ZINC001326371752   -0.0800
      7 N7         -3.4680    4.0453   53.2185 N.2     1  ZINC001326371752   -0.2500
      8 C8         -3.2585    3.5722   51.9954 C.2     1  ZINC001326371752   -0.0400
      9 C9         -4.3210    2.7865   51.6911 C.2     1  ZINC001326371752    0.0000
     10 C10        -4.4906    2.0387   50.3961 C.3     1  ZINC001326371752   -0.0600
     11 C11        -3.5459    2.6441   49.3494 C.3     1  ZINC001326371752    0.1200
     12 N12        -2.2217    2.8506   49.9543 N.am    1  ZINC001326371752   -0.6100
     13 C13        -1.1454    2.1748   49.5057 C.2     1  ZINC001326371752    0.6100
     14 O14        -0.0561    2.3570   50.0169 O.2     1  ZINC001326371752   -0.5100
     15 C15        -1.2869    1.2194   48.4009 C.2     1  ZINC001326371752   -0.3400
     16 C16        -1.3478   -0.1563   48.6517 C.2     1  ZINC001326371752    0.2400
     17 N17        -1.4752   -0.9864   47.6340 N.2     1  ZINC001326371752   -0.5100
     18 C18        -1.5470   -0.5547   46.3818 C.2     1  ZINC001326371752    0.2900
     19 S19        -1.7124   -1.4245   44.9044 S.3     1  ZINC001326371752    0.2500
     20 C20        -1.7073    0.0194   43.8796 C.2     1  ZINC001326371752   -0.2100
     21 C21        -1.5832    1.0402   44.7109 C.2     1  ZINC001326371752    0.0500
     22 N22        -1.4954    0.7629   46.0537 N.am    1  ZINC001326371752   -0.4600
     23 C23        -1.3698    1.6712   47.0657 C.2     1  ZINC001326371752    0.5500
     24 O24        -1.3251    2.8636   46.8177 O.2     1  ZINC001326371752   -0.5000
     25 C25        -2.0965    3.8114   51.0651 C.3     1  ZINC001326371752    0.2000
     26 H26        -8.1283    4.3100   49.3492 H       1  ZINC001326371752    0.0900
     27 H27        -9.3325    3.7862   50.5509 H       1  ZINC001326371752    0.0500
     28 H28        -8.2502    5.1522   50.9125 H       1  ZINC001326371752    0.0500
     29 H29        -7.5158    3.9993   52.9074 H       1  ZINC001326371752    0.0600
     30 H30        -8.5109    2.5685   52.5457 H       1  ZINC001326371752    0.0600
     31 H31        -6.6049    1.8951   53.9297 H       1  ZINC001326371752    0.1200
     32 H32        -6.4056    1.2245   52.2930 H       1  ZINC001326371752    0.1200
     33 H33        -4.2444    0.9875   50.5461 H       1  ZINC001326371752    0.0900
     34 H34        -5.5215    2.1295   50.0540 H       1  ZINC001326371752    0.1000
     35 H35        -3.4571    1.9639   48.5023 H       1  ZINC001326371752    0.1100
     36 H36        -3.9440    3.6002   49.0094 H       1  ZINC001326371752    0.0800
     37 H37        -1.2912   -0.5324   49.6625 H       1  ZINC001326371752    0.1900
     38 H38        -1.7879    0.0581   42.8033 H       1  ZINC001326371752    0.2200
     39 H39        -1.5519    2.0565   44.3469 H       1  ZINC001326371752    0.2000
     40 H40        -2.1389    4.8306   50.6809 H       1  ZINC001326371752    0.1000
     41 H41        -1.1553    3.6506   51.5906 H       1  ZINC001326371752    0.1000
@<TRIPOS>BOND
     1     1     2    1
     2     1    26    1
     3     1    27    1
     4     1    28    1
     5     2     3    1
     6     3     4    1
     7     3    29    1
     8     3    30    1
     9     4     5    1
    10     4    31    1
    11     4    32    1
    12     5     9    1
    13     5     6    1
    14     6     7    2
    15     7     8    1
    16     8    25    1
    17     8     9    2
    18     9    10    1
    19    10    11    1
    20    10    33    1
    21    10    34    1
    22    11    12    1
    23    11    35    1
    24    11    36    1
    25    12    13   am
    26    12    25    1
    27    13    14    2
    28    13    15    1
    29    15    23    1
    30    15    16    2
    31    16    17    1
    32    16    37    1
    33    17    18    2
    34    18    22    1
    35    18    19    1
    36    19    20    1
    37    20    21    2
    38    20    38    1
    39    21    22    1
    40    21    39    1
    41    22    23   am
    42    23    24    2
    43    25    40    1
    44    25    41    1
@<TRIPOS>SUBSTRUCTURE
     1 ZINC001326371752        1 TEMP              0 ****  ****    0 ROOT


##########                                Name:    ZINC000518234532
##########                DOCK_Rotatable_Bonds:                   5
##########                         Heavy_Atoms:                  25
##########                    Molecular_Weight:             408.267
##########                DOCK_Rotatable_Bonds:                   5
##########                       Formal_Charge:         -0.00999981
##########                     HBond_Acceptors:                   5
##########                        HBond_Donors:                   1
##########                         Heavy_Atoms:                  25
##########                          Grid_Score:          -32.111691
##########                     Grid_vdw_energy:          -31.575077
##########                      Grid_es_energy:           -0.536615
##########           Internal_energy_repulsive:           23.352514

@<TRIPOS>MOLECULE
ZINC000518234532
 44 46 1 0 0
SMALL
USER_CHARGES


@<TRIPOS>ATOM
      1 C1         -0.7488   -0.5503   48.5724 C.3     1  ZINC000518234532   -0.1600
      2 C2         -0.5798    0.9254   48.2053 C.3     1  ZINC000518234532    0.1800
      3 H3          0.4678    1.2079   48.3091 H       1  ZINC000518234532    0.1100
      4 N4         -1.0076    1.1361   46.8201 N.am    1  ZINC000518234532   -0.7300
      5 C5         -0.2814    0.6264   45.8056 C.2     1  ZINC000518234532    0.5200
      6 O6          0.7255   -0.0080   46.0396 O.2     1  ZINC000518234532   -0.5200
      7 C7         -0.7204    0.8447   44.3806 C.3     1  ZINC000518234532   -0.0700
      8 H8         -1.2916    1.7707   44.3143 H       1  ZINC000518234532    0.1100
      9 C9         -1.5950   -0.3273   43.9311 C.3     1  ZINC000518234532   -0.1400
     10 C10         0.4918    0.9373   43.4901 C.ar    1  ZINC000518234532   -0.1000
     11 C11         0.6036    0.1128   42.3869 C.ar    1  ZINC000518234532   -0.0600
     12 C12         1.7157    0.1976   41.5697 C.ar    1  ZINC000518234532   -0.1300
     13 C13         2.7171    1.1065   41.8555 C.ar    1  ZINC000518234532   -0.0900
     14 C14         2.6077    1.9319   42.9588 C.ar    1  ZINC000518234532   -0.1600
     15 C15         1.4915    1.8525   43.7739 C.ar    1  ZINC000518234532    0.1000
     16 F16         1.3835    2.6588   44.8525 F       1  ZINC000518234532   -0.1400
     17 C17        -1.4218    1.7715   49.1253 C.ar    1  ZINC000518234532   -0.0600
     18 C18        -2.7784    1.9000   48.8956 C.ar    1  ZINC000518234532   -0.1100
     19 C19        -3.5560    2.6774   49.7410 C.ar    1  ZINC000518234532    0.0800
     20 C20        -2.9679    3.3248   50.8210 C.ar    1  ZINC000518234532    0.0600
     21 C21        -1.6057    3.1931   51.0459 C.ar    1  ZINC000518234532   -0.0800
     22 C22        -0.8365    2.4136   50.2017 C.ar    1  ZINC000518234532   -0.0800
     23 Br23        1.0203    2.2352   50.5118 Br      1  ZINC000518234532   -0.0300
     24 O24        -3.7142    4.0860   51.6673 O.3     1  ZINC000518234532   -0.3000
     25 C25        -5.0030    4.4959   51.1973 C.3     1  ZINC000518234532    0.0200
     26 C26        -5.6993    3.2760   50.5789 C.3     1  ZINC000518234532    0.0200
     27 O27        -4.8902    2.7976   49.4991 O.3     1  ZINC000518234532   -0.3000
     28 H28        -0.1399   -1.1623   47.9070 H       1  ZINC000518234532    0.0700
     29 H29        -0.4306   -0.7070   49.6030 H       1  ZINC000518234532    0.0700
     30 H30        -1.7965   -0.8328   48.4687 H       1  ZINC000518234532    0.0600
     31 H31        -1.8135    1.6425   46.6330 H       1  ZINC000518234532    0.4000
     32 H32        -2.4719   -0.3944   44.5752 H       1  ZINC000518234532    0.0700
     33 H33        -1.9125   -0.1695   42.9004 H       1  ZINC000518234532    0.0700
     34 H34        -1.0238   -1.2534   43.9975 H       1  ZINC000518234532    0.0700
     35 H35        -0.1778   -0.5983   42.1630 H       1  ZINC000518234532    0.1300
     36 H36         1.8022   -0.4472   40.7076 H       1  ZINC000518234532    0.1300
     37 H37         3.5855    1.1716   41.2167 H       1  ZINC000518234532    0.1300
     38 H38         3.3905    2.6416   43.1823 H       1  ZINC000518234532    0.1400
     39 H39        -3.2337    1.3949   48.0565 H       1  ZINC000518234532    0.1400
     40 H40        -1.1459    3.6969   51.8832 H       1  ZINC000518234532    0.1500
     41 H41        -5.5951    4.8739   52.0309 H       1  ZINC000518234532    0.1300
     42 H42        -4.8888    5.2751   50.4438 H       1  ZINC000518234532    0.0800
     43 H43        -5.8082    2.4945   51.3309 H       1  ZINC000518234532    0.0800
     44 H44        -6.6809    3.5645   50.2032 H       1  ZINC000518234532    0.1300
@<TRIPOS>BOND
     1     1     2    1
     2     1    28    1
     3     1    29    1
     4     1    30    1
     5     2     3    1
     6     2     4    1
     7     2    17    1
     8     4     5   am
     9     4    31    1
    10     5     6    2
    11     5     7    1
    12     7     8    1
    13     7     9    1
    14     7    10    1
    15     9    32    1
    16     9    33    1
    17     9    34    1
    18    10    15   ar
    19    10    11   ar
    20    11    12   ar
    21    11    35    1
    22    12    13   ar
    23    12    36    1
    24    13    14   ar
    25    13    37    1
    26    14    15   ar
    27    14    38    1
    28    15    16    1
    29    17    22   ar
    30    17    18   ar
    31    18    19   ar
    32    18    39    1
    33    19    27    1
    34    19    20   ar
    35    20    21   ar
    36    20    24    1
    37    21    22   ar
    38    21    40    1
    39    22    23    1
    40    24    25    1
    41    25    26    1
    42    25    41    1
    43    25    42    1
    44    26    27    1
    45    26    43    1
    46    26    44    1
@<TRIPOS>SUBSTRUCTURE
     1 ZINC000518234532        1 TEMP              0 ****  ****    0 ROOT


##########                                Name:    ZINC000465392830
##########                DOCK_Rotatable_Bonds:                   8
##########                         Heavy_Atoms:                  29
##########                    Molecular_Weight:             419.588
##########                DOCK_Rotatable_Bonds:                   8
##########                       Formal_Charge:           0.0199996
##########                     HBond_Acceptors:                   7
##########                        HBond_Donors:                   0
##########                         Heavy_Atoms:                  29
##########                          Grid_Score:          -32.092457
##########                     Grid_vdw_energy:          -30.321918
##########                      Grid_es_energy:           -1.770539
##########           Internal_energy_repulsive:           54.309109

@<TRIPOS>MOLECULE
ZINC000465392830
 62 64 1 0 0
SMALL
USER_CHARGES


@<TRIPOS>ATOM
      1 C1         -9.8168    5.0977   49.4962 C.3     1  ZINC000465392830    0.0400
      2 O2         -8.5767    4.3435   49.5385 O.3     1  ZINC000465392830   -0.3600
      3 C3         -8.3366    3.6271   50.6479 C.2     1  ZINC000465392830    0.4600
      4 O4         -9.1358    3.6309   51.5542 O.2     1  ZINC000465392830   -0.4900
      5 C5         -7.0704    2.8181   50.7632 C.3     1  ZINC000465392830    0.1500
      6 H6         -7.1182    1.9579   50.0955 H       1  ZINC000465392830    0.1100
      7 C7         -5.8527    3.6951   50.4032 C.3     1  ZINC000465392830   -0.1100
      8 C8         -4.7761    3.2285   51.4184 C.3     1  ZINC000465392830   -0.0900
      9 H9         -4.2782    2.3230   51.0712 H       1  ZINC000465392830    0.1000
     10 C10        -3.7601    4.3397   51.6899 C.3     1  ZINC000465392830   -0.0800
     11 C11        -4.4809    5.5603   52.2656 C.3     1  ZINC000465392830   -0.1200
     12 C12        -3.4649    6.6715   52.5371 C.3     1  ZINC000465392830   -0.1200
     13 C13        -2.4218    6.1750   53.5403 C.3     1  ZINC000465392830   -0.1200
     14 C14        -1.7010    4.9545   52.9645 C.3     1  ZINC000465392830   -0.1200
     15 C15        -2.7171    3.8432   52.6931 C.3     1  ZINC000465392830   -0.1200
     16 C16        -5.6363    2.9424   52.6745 C.3     1  ZINC000465392830    0.1000
     17 N17        -6.8912    2.3649   52.1504 N.am    1  ZINC000465392830   -0.6100
     18 C18        -7.7308    1.5609   52.8322 C.2     1  ZINC000465392830    0.5400
     19 O19        -8.7388    1.1460   52.3004 O.2     1  ZINC000465392830   -0.5300
     20 C20        -7.4171    1.1773   54.2554 C.3     1  ZINC000465392830   -0.1300
     21 C21        -8.1858    2.0918   55.2114 C.3     1  ZINC000465392830   -0.0600
     22 C22        -8.1417    1.5147   56.6028 C.ar    1  ZINC000465392830   -0.2000
     23 C23        -7.1288    1.8641   57.4824 C.ar    1  ZINC000465392830    0.2000
     24 C24        -6.0521    2.8304   57.0605 C.3     1  ZINC000465392830   -0.1100
     25 N25        -7.1191    1.3396   58.6965 N.ar    1  ZINC000465392830   -0.5000
     26 C26        -8.0631    0.4894   59.0748 C.ar    1  ZINC000465392830    0.3000
     27 S27        -8.0115   -0.1853   60.7016 S.3     1  ZINC000465392830    0.0000
     28 C28        -9.5095   -1.2007   60.6685 C.3     1  ZINC000465392830   -0.1400
     29 N29        -9.0454    0.1353   58.2582 N.ar    1  ZINC000465392830   -0.5300
     30 C30        -9.1162    0.6275   57.0326 C.ar    1  ZINC000465392830    0.2000
     31 C31       -10.2362    0.2196   56.1105 C.3     1  ZINC000465392830   -0.1100
     32 H32       -10.6608    4.4147   49.5921 H       1  ZINC000465392830    0.0600
     33 H33        -9.8342    5.8145   50.3172 H       1  ZINC000465392830    0.0600
     34 H34        -9.8861    5.6300   48.5475 H       1  ZINC000465392830    0.1000
     35 H35        -5.5277    3.5027   49.3807 H       1  ZINC000465392830    0.1000
     36 H36        -6.0830    4.7512   50.5435 H       1  ZINC000465392830    0.0800
     37 H37        -3.2657    4.6155   50.7583 H       1  ZINC000465392830    0.0800
     38 H38        -5.2240    5.9140   51.5509 H       1  ZINC000465392830    0.0600
     39 H39        -4.9752    5.2845   53.1971 H       1  ZINC000465392830    0.0700
     40 H40        -2.9706    6.9474   51.6055 H       1  ZINC000465392830    0.0600
     41 H41        -3.9785    7.5411   52.9472 H       1  ZINC000465392830    0.0600
     42 H42        -1.6980    6.9667   53.7336 H       1  ZINC000465392830    0.0600
     43 H43        -2.9162    5.8992   54.4718 H       1  ZINC000465392830    0.0600
     44 H44        -1.2067    5.2303   52.0330 H       1  ZINC000465392830    0.0600
     45 H45        -0.9579    4.6007   53.6792 H       1  ZINC000465392830    0.0600
     46 H46        -3.2113    3.5673   53.6246 H       1  ZINC000465392830    0.0700
     47 H47        -2.2034    2.9736   52.2829 H       1  ZINC000465392830    0.0600
     48 H48        -5.1330    2.2262   53.3239 H       1  ZINC000465392830    0.0900
     49 H49        -5.8393    3.8676   53.2139 H       1  ZINC000465392830    0.0800
     50 H50        -7.7129    0.1421   54.4263 H       1  ZINC000465392830    0.1000
     51 H51        -6.3469    1.2834   54.4329 H       1  ZINC000465392830    0.1000
     52 H52        -7.7288    3.0813   55.2137 H       1  ZINC000465392830    0.0900
     53 H53        -9.2224    2.1710   54.8836 H       1  ZINC000465392830    0.0900
     54 H54        -6.3613    3.8472   57.3024 H       1  ZINC000465392830    0.0900
     55 H55        -5.1272    2.5967   57.5879 H       1  ZINC000465392830    0.0900
     56 H56        -5.8889    2.7460   55.9861 H       1  ZINC000465392830    0.0900
     57 H57       -10.3749   -0.5654   60.4797 H       1  ZINC000465392830    0.0900
     58 H58        -9.4261   -1.9455   59.8771 H       1  ZINC000465392830    0.0900
     59 H59        -9.6296   -1.7024   61.6287 H       1  ZINC000465392830    0.1100
     60 H60       -11.0763    0.9027   56.2350 H       1  ZINC000465392830    0.0900
     61 H61        -9.8883    0.2558   55.0782 H       1  ZINC000465392830    0.0900
     62 H62       -10.5540   -0.7949   56.3515 H       1  ZINC000465392830    0.0800
@<TRIPOS>BOND
     1     1     2    1
     2     1    32    1
     3     1    33    1
     4     1    34    1
     5     2     3    1
     6     3     4    2
     7     3     5    1
     8     5     6    1
     9     5    17    1
    10     5     7    1
    11     7     8    1
    12     7    35    1
    13     7    36    1
    14     8     9    1
    15     8    10    1
    16     8    16    1
    17    10    15    1
    18    10    11    1
    19    10    37    1
    20    11    12    1
    21    11    38    1
    22    11    39    1
    23    12    13    1
    24    12    40    1
    25    12    41    1
    26    13    14    1
    27    13    42    1
    28    13    43    1
    29    14    15    1
    30    14    44    1
    31    14    45    1
    32    15    46    1
    33    15    47    1
    34    16    17    1
    35    16    48    1
    36    16    49    1
    37    17    18   am
    38    18    19    2
    39    18    20    1
    40    20    21    1
    41    20    50    1
    42    20    51    1
    43    21    22    1
    44    21    52    1
    45    21    53    1
    46    22    30   ar
    47    22    23   ar
    48    23    24    1
    49    23    25   ar
    50    24    54    1
    51    24    55    1
    52    24    56    1
    53    25    26   ar
    54    26    27    1
    55    26    29   ar
    56    27    28    1
    57    28    57    1
    58    28    58    1
    59    28    59    1
    60    29    30   ar
    61    30    31    1
    62    31    60    1
    63    31    61    1
    64    31    62    1
@<TRIPOS>SUBSTRUCTURE
     1 ZINC000465392830        1 TEMP              0 ****  ****    0 ROOT


##########                                Name:    ZINC000499369364
##########                DOCK_Rotatable_Bonds:                   9
##########                         Heavy_Atoms:                  25
##########                    Molecular_Weight:             384.527
##########                DOCK_Rotatable_Bonds:                   9
##########                       Formal_Charge:        -5.88596e-07
##########                     HBond_Acceptors:                  10
##########                        HBond_Donors:                   1
##########                         Heavy_Atoms:                  25
##########                          Grid_Score:          -32.082603
##########                     Grid_vdw_energy:          -32.777878
##########                      Grid_es_energy:            0.695276
##########           Internal_energy_repulsive:           25.922939

@<TRIPOS>MOLECULE
ZINC000499369364
 49 51 1 0 0
SMALL
USER_CHARGES


@<TRIPOS>ATOM
      1 C1         -7.0588    3.6311   53.2680 C.3     1  ZINC000499369364   -0.1500
      2 C2         -7.2141    2.8014   51.9919 C.3     1  ZINC000499369364   -0.1000
      3 C3         -7.9926    3.6080   50.9507 C.3     1  ZINC000499369364   -0.1500
      4 C4         -5.8308    2.4541   51.4380 C.3     1  ZINC000499369364    0.1500
      5 H5         -5.2762    1.8794   52.1797 H       1  ZINC000499369364    0.0900
      6 C6         -5.9860    1.6245   50.1618 C.3     1  ZINC000499369364   -0.1700
      7 N7         -5.1032    3.6885   51.1325 N.am    1  ZINC000499369364   -0.7200
      8 C8         -3.9698    3.9850   51.7988 C.2     1  ZINC000499369364    0.5100
      9 O9         -3.5514    3.2293   52.6502 O.2     1  ZINC000499369364   -0.5100
     10 C10        -3.2223    5.2556   51.4860 C.3     1  ZINC000499369364    0.1200
     11 H11        -3.4654    5.5626   50.4688 H       1  ZINC000499369364    0.1200
     12 C12        -3.6877    6.3593   52.4629 C.3     1  ZINC000499369364   -0.0800
     13 S13        -2.3548    6.3037   53.7331 S.3     1  ZINC000499369364   -0.2400
     14 C14        -1.0507    5.8243   52.5257 C.3     1  ZINC000499369364    0.1400
     15 N15        -1.7940    4.9898   51.5658 N.am    1  ZINC000499369364   -0.6000
     16 C16        -1.1945    4.0477   50.8113 C.2     1  ZINC000499369364    0.5600
     17 O17        -0.0001    3.8613   50.9098 O.2     1  ZINC000499369364   -0.5000
     18 C18        -2.0082    3.2257   49.8452 C.3     1  ZINC000499369364   -0.1500
     19 S19        -1.0779    3.0051   48.3083 S.3     1  ZINC000499369364    0.1300
     20 C20        -1.1546    1.2517   48.1531 C.2     1  ZINC000499369364    0.2000
     21 N21        -0.9482    0.3726   49.1098 N.2     1  ZINC000499369364   -0.3400
     22 N22        -1.0822   -0.8224   48.6590 N.2     1  ZINC000499369364   -0.0300
     23 N23        -1.3786   -0.7976   47.4047 N.2     1  ZINC000499369364   -0.0800
     24 N24        -1.4429    0.5554   47.0282 N.pl3   1  ZINC000499369364   -0.3300
     25 C25        -1.7475    1.0959   45.7012 C.3     1  ZINC000499369364    0.0500
     26 C26        -0.7540    0.8047   44.5746 C.3     1  ZINC000499369364   -0.1500
     27 C27        -2.1115    0.0992   44.5989 C.3     1  ZINC000499369364   -0.1600
     28 H28        -8.0442    3.8786   53.6626 H       1  ZINC000499369364    0.0600
     29 H29        -6.5041    3.0564   54.0097 H       1  ZINC000499369364    0.0600
     30 H30        -6.5173    4.5494   53.0407 H       1  ZINC000499369364    0.0600
     31 H31        -7.7556    1.8831   52.2192 H       1  ZINC000499369364    0.0800
     32 H32        -8.9781    3.8555   51.3453 H       1  ZINC000499369364    0.0600
     33 H33        -7.4512    4.5263   50.7234 H       1  ZINC000499369364    0.0600
     34 H34        -8.1032    3.0170   50.0415 H       1  ZINC000499369364    0.0500
     35 H35        -6.5407    2.1992   49.4201 H       1  ZINC000499369364    0.0600
     36 H36        -5.0005    1.3772   49.7671 H       1  ZINC000499369364    0.0600
     37 H37        -6.5274    0.7061   50.3890 H       1  ZINC000499369364    0.0700
     38 H38        -5.4371    4.2923   50.4508 H       1  ZINC000499369364    0.4000
     39 H39        -3.7185    7.3310   51.9699 H       1  ZINC000499369364    0.1200
     40 H40        -4.6554    6.1128   52.8997 H       1  ZINC000499369364    0.1300
     41 H41        -0.6358    6.7046   52.0348 H       1  ZINC000499369364    0.1100
     42 H42        -0.2657    5.2463   53.0135 H       1  ZINC000499369364    0.1200
     43 H43        -2.2191    2.2510   50.2853 H       1  ZINC000499369364    0.1300
     44 H44        -2.9459    3.7387   49.6319 H       1  ZINC000499369364    0.1300
     45 H45        -2.2506    2.0628   45.6915 H       1  ZINC000499369364    0.1600
     46 H46        -0.6031    1.5801   43.8236 H       1  ZINC000499369364    0.1200
     47 H47         0.1262    0.2109   44.8209 H       1  ZINC000499369364    0.1200
     48 H48        -2.1242   -0.9587   44.8611 H       1  ZINC000499369364    0.1100
     49 H49        -2.8537    0.4105   43.8638 H       1  ZINC000499369364    0.1200
@<TRIPOS>BOND
     1     1     2    1
     2     1    28    1
     3     1    29    1
     4     1    30    1
     5     2     3    1
     6     2     4    1
     7     2    31    1
     8     3    32    1
     9     3    33    1
    10     3    34    1
    11     4     5    1
    12     4     6    1
    13     4     7    1
    14     6    35    1
    15     6    36    1
    16     6    37    1
    17     7     8   am
    18     7    38    1
    19     8     9    2
    20     8    10    1
    21    10    11    1
    22    10    15    1
    23    10    12    1
    24    12    13    1
    25    12    39    1
    26    12    40    1
    27    13    14    1
    28    14    15    1
    29    14    41    1
    30    14    42    1
    31    15    16   am
    32    16    17    2
    33    16    18    1
    34    18    19    1
    35    18    43    1
    36    18    44    1
    37    19    20    1
    38    20    24    1
    39    20    21    2
    40    21    22    1
    41    22    23    2
    42    23    24    1
    43    24    25    1
    44    25    27    1
    45    25    26    1
    46    25    45    1
    47    26    27    1
    48    26    46    1
    49    26    47    1
    50    27    48    1
    51    27    49    1
@<TRIPOS>SUBSTRUCTURE
     1 ZINC000499369364        1 TEMP              0 ****  ****    0 ROOT


##########                                Name:    ZINC000876376999
##########                DOCK_Rotatable_Bonds:                   7
##########                         Heavy_Atoms:                  24
##########                    Molecular_Weight:             358.502
##########                DOCK_Rotatable_Bonds:                   7
##########                       Formal_Charge:          -0.0299994
##########                     HBond_Acceptors:                   7
##########                        HBond_Donors:                   2
##########                         Heavy_Atoms:                  24
##########                          Grid_Score:          -32.078754
##########                     Grid_vdw_energy:          -31.638340
##########                      Grid_es_energy:           -0.440416
##########           Internal_energy_repulsive:           40.275761

@<TRIPOS>MOLECULE
ZINC000876376999
 54 56 1 0 0
SMALL
USER_CHARGES


@<TRIPOS>ATOM
      1 C1         -8.6622    4.3252   53.5143 C.3     1  ZINC000876376999   -0.1500
      2 C2         -7.5399    4.8874   52.6394 C.3     1  ZINC000876376999   -0.1100
      3 C3         -6.6453    3.7429   52.1595 C.3     1  ZINC000876376999   -0.0700
      4 C4         -5.6842    3.3416   53.2804 C.3     1  ZINC000876376999    0.0900
      5 O5         -6.3148    2.3781   54.1264 O.3     1  ZINC000876376999   -0.5600
      6 C6         -7.5133    2.5422   51.7760 C.3     1  ZINC000876376999   -0.1100
      7 C7         -6.6176    1.3854   51.3270 C.3     1  ZINC000876376999   -0.1400
      8 C8         -5.8149    1.8150   50.0948 C.3     1  ZINC000876376999    0.1100
      9 N9         -5.0891    3.0526   50.4112 N.am    1  ZINC000876376999   -0.6300
     10 C10        -3.7571    3.1350   50.2225 C.2     1  ZINC000876376999    0.7100
     11 O11        -3.1680    4.1649   50.4880 O.2     1  ZINC000876376999   -0.5800
     12 N12        -3.0783    2.0757   49.7393 N.am    1  ZINC000876376999   -0.7500
     13 C13        -1.6305    2.1652   49.5341 C.3     1  ZINC000876376999    0.1400
     14 C14        -1.0787    0.7805   49.1736 C.3     1  ZINC000876376999   -0.1100
     15 C15        -1.4195    0.4348   47.7496 C.3     1  ZINC000876376999   -0.1100
     16 C16        -0.3064    0.6598   46.7195 C.3     1  ZINC000876376999   -0.5200
     17 H17        -0.6052    0.4218   45.6891 H       1  ZINC000876376999    0.1500
     18 C18         0.1948    2.1127   46.8851 C.3     1  ZINC000876376999   -0.1200
     19 C19         1.2077    2.2209   48.0198 C.3     1  ZINC000876376999   -0.1200
     20 C20         1.4493    0.8472   48.6866 C.3     1  ZINC000876376999   -0.5300
     21 H21         2.4554    0.7486   49.1177 H       1  ZINC000876376999    0.1500
     22 C22         0.3215    0.6205   49.7000 C.3     1  ZINC000876376999   -0.1000
     23 S23         1.1332   -0.3280   47.3047 S.o2    1  ZINC000876376999    2.3700
     24 O24         0.6957   -1.5794   47.8145 O.2     1  ZINC000876376999   -0.9300
     25 O25         2.1890   -0.2637   46.3561 O.2     1  ZINC000876376999   -0.9300
     26 C26        -5.8429    4.1991   50.9369 C.3     1  ZINC000876376999    0.1400
     27 H27        -9.3056    3.6838   52.9121 H       1  ZINC000876376999    0.0500
     28 H28        -8.2309    3.7444   54.3296 H       1  ZINC000876376999    0.0600
     29 H29        -9.2494    5.1468   53.9243 H       1  ZINC000876376999    0.0500
     30 H30        -7.9715    5.3969   51.7778 H       1  ZINC000876376999    0.0600
     31 H31        -6.9463    5.5939   53.2195 H       1  ZINC000876376999    0.0700
     32 H32        -4.7816    2.9100   52.8478 H       1  ZINC000876376999    0.0500
     33 H33        -5.4210    4.2225   53.8660 H       1  ZINC000876376999    0.0400
     34 H34        -5.7506    2.0532   54.8414 H       1  ZINC000876376999    0.3800
     35 H35        -8.1038    2.2310   52.6377 H       1  ZINC000876376999    0.0700
     36 H36        -8.1807    2.8223   50.9609 H       1  ZINC000876376999    0.0700
     37 H37        -5.9331    1.1213   52.1330 H       1  ZINC000876376999    0.0700
     38 H38        -7.2352    0.5231   51.0762 H       1  ZINC000876376999    0.0800
     39 H39        -5.1042    1.0320   49.8306 H       1  ZINC000876376999    0.0700
     40 H40        -6.4933    1.9925   49.2605 H       1  ZINC000876376999    0.0700
     41 H41        -3.5483    1.2541   49.5273 H       1  ZINC000876376999    0.3900
     42 H42        -1.4208    2.8624   48.7229 H       1  ZINC000876376999    0.0800
     43 H43        -1.1550    2.5188   50.4491 H       1  ZINC000876376999    0.0700
     44 H44        -1.7006    0.0765   49.7957 H       1  ZINC000876376999    0.0900
     45 H45        -1.7304   -0.6236   47.7038 H       1  ZINC000876376999    0.0900
     46 H46        -2.3051    1.0174   47.4416 H       1  ZINC000876376999    0.0900
     47 H47         0.6805    2.4244   45.9552 H       1  ZINC000876376999    0.0800
     48 H48        -0.6442    2.7765   47.0725 H       1  ZINC000876376999    0.0900
     49 H49         2.1547    2.5819   47.6069 H       1  ZINC000876376999    0.0800
     50 H50         0.8611    2.9371   48.7591 H       1  ZINC000876376999    0.0900
     51 H51         0.4670    1.3132   50.5472 H       1  ZINC000876376999    0.0900
     52 H52         0.4299   -0.3933   50.1239 H       1  ZINC000876376999    0.0900
     53 H53        -6.5237    4.5709   50.1711 H       1  ZINC000876376999    0.0600
     54 H54        -5.1507    4.9891   51.2281 H       1  ZINC000876376999    0.1000
@<TRIPOS>BOND
     1     1     2    1
     2     1    27    1
     3     1    28    1
     4     1    29    1
     5     2     3    1
     6     2    30    1
     7     2    31    1
     8     3    26    1
     9     3     4    1
    10     3     6    1
    11     4     5    1
    12     4    32    1
    13     4    33    1
    14     5    34    1
    15     6     7    1
    16     6    35    1
    17     6    36    1
    18     7     8    1
    19     7    37    1
    20     7    38    1
    21     8     9    1
    22     8    39    1
    23     8    40    1
    24     9    10   am
    25     9    26    1
    26    10    11    2
    27    10    12   am
    28    12    13    1
    29    12    41    1
    30    13    14    1
    31    13    42    1
    32    13    43    1
    33    14    22    1
    34    14    15    1
    35    14    44    1
    36    15    16    1
    37    15    45    1
    38    15    46    1
    39    16    17    1
    40    16    23    1
    41    16    18    1
    42    18    19    1
    43    18    47    1
    44    18    48    1
    45    19    20    1
    46    19    49    1
    47    19    50    1
    48    20    21    1
    49    20    22    1
    50    20    23    1
    51    22    51    1
    52    22    52    1
    53    23    24    2
    54    23    25    2
    55    26    53    1
    56    26    54    1
@<TRIPOS>SUBSTRUCTURE
     1 ZINC000876376999        1 TEMP              0 ****  ****    0 ROOT


##########                                Name:    ZINC001018437438
##########                DOCK_Rotatable_Bonds:                   8
##########                         Heavy_Atoms:                  24
##########                    Molecular_Weight:              333.39
##########                DOCK_Rotatable_Bonds:                   8
##########                       Formal_Charge:        -4.17233e-07
##########                     HBond_Acceptors:                   8
##########                        HBond_Donors:                   4
##########                         Heavy_Atoms:                  24
##########                          Grid_Score:          -32.065918
##########                     Grid_vdw_energy:          -30.303976
##########                      Grid_es_energy:           -1.761941
##########           Internal_energy_repulsive:           91.406647

@<TRIPOS>MOLECULE
ZINC001018437438
 47 49 1 0 0
SMALL
USER_CHARGES


@<TRIPOS>ATOM
      1 C1          2.5426    0.5848   47.2941 C.3     1  ZINC001018437438   -0.1400
      2 C2          1.3568    0.5485   48.2600 C.3     1  ZINC001018437438    0.1400
      3 H3          1.4404   -0.3234   48.9088 H       1  ZINC001018437438    0.0700
      4 C4          1.3480    1.8225   49.1106 C.3     1  ZINC001018437438   -0.1300
      5 C5          0.0853    1.8455   49.9749 C.3     1  ZINC001018437438   -0.1300
      6 C6         -1.1516    1.8580   49.0737 C.3     1  ZINC001018437438    0.1300
      7 H7         -1.1178    2.7307   48.4216 H       1  ZINC001018437438    0.1000
      8 N8         -2.3591    1.9125   49.9014 N.am    1  ZINC001018437438   -0.7200
      9 C9         -3.5597    2.1282   49.3284 C.2     1  ZINC001018437438    0.6000
     10 O10        -3.6409    2.2763   48.1239 O.2     1  ZINC001018437438   -0.5100
     11 C11        -4.7725    2.1847   50.1600 C.2     1  ZINC001018437438   -0.0400
     12 C12        -4.8307    2.3312   51.5351 C.2     1  ZINC001018437438   -0.1400
     13 C13        -6.1915    2.3279   51.8502 C.2     1  ZINC001018437438    0.0600
     14 C14        -6.7831    2.4611   53.2297 C.3     1  ZINC001018437438   -0.0800
     15 C15        -8.0563    3.2971   53.3747 C.3     1  ZINC001018437438   -0.1700
     16 C16        -8.1243    1.7732   53.4926 C.3     1  ZINC001018437438   -0.1600
     17 N17        -6.8615    2.1895   50.7346 N.2     1  ZINC001018437438   -0.2600
     18 N18        -6.0664    2.1089   49.7289 N.pl3   1  ZINC001018437438   -0.3800
     19 C19        -1.1712    0.5844   48.2227 C.3     1  ZINC001018437438    0.1000
     20 N20         0.1027    0.4768   47.4979 N.am    1  ZINC001018437438   -0.6100
     21 C21         0.1201    0.3204   46.1594 C.2     1  ZINC001018437438    0.5200
     22 O22         1.1781    0.2376   45.5722 O.2     1  ZINC001018437438   -0.4800
     23 C23        -1.1751    0.2487   45.3923 C.3     1  ZINC001018437438   -0.1700
     24 C24        -0.8954   -0.1733   43.9727 C.2     1  ZINC001018437438    0.5200
     25 N25        -0.1231    0.5966   43.1807 N.am    1  ZINC001018437438   -0.8600
     26 O26        -1.3653   -1.2055   43.5433 O.2     1  ZINC001018437438   -0.5000
     27 H27         2.4062    1.3983   46.5815 H       1  ZINC001018437438    0.0700
     28 H28         3.4635    0.7439   47.8551 H       1  ZINC001018437438    0.0500
     29 H29         2.6033   -0.3620   46.7574 H       1  ZINC001018437438    0.0800
     30 H30         2.2288    1.8372   49.7527 H       1  ZINC001018437438    0.0900
     31 H31         1.3583    2.6956   48.4582 H       1  ZINC001018437438    0.0700
     32 H32         0.0634    0.9595   50.6095 H       1  ZINC001018437438    0.0700
     33 H33         0.0887    2.7389   50.5993 H       1  ZINC001018437438    0.0800
     34 H34        -2.2946    1.7932   50.8619 H       1  ZINC001018437438    0.4000
     35 H35        -4.0006    2.4275   52.2191 H       1  ZINC001018437438    0.1700
     36 H36        -6.0643    2.4919   54.0486 H       1  ZINC001018437438    0.1200
     37 H37        -8.1752    3.8784   54.2892 H       1  ZINC001018437438    0.1000
     38 H38        -8.4659    3.7509   52.4723 H       1  ZINC001018437438    0.1000
     39 H39        -8.5787    1.2243   52.6677 H       1  ZINC001018437438    0.1000
     40 H40        -8.2879    1.3519   54.4845 H       1  ZINC001018437438    0.1000
     41 H41        -6.3426    2.0034   48.8051 H       1  ZINC001018437438    0.4400
     42 H42        -1.2962   -0.2847   48.8686 H       1  ZINC001018437438    0.0700
     43 H43        -1.9943    0.6339   47.5098 H       1  ZINC001018437438    0.0900
     44 H44        -1.8367   -0.4780   45.8636 H       1  ZINC001018437438    0.1200
     45 H45        -1.6525    1.2285   45.3927 H       1  ZINC001018437438    0.1200
     46 H46         0.0562    0.3257   42.2668 H       1  ZINC001018437438    0.4000
     47 H47         0.2537    1.4215   43.5248 H       1  ZINC001018437438    0.4000
@<TRIPOS>BOND
     1     1     2    1
     2     1    27    1
     3     1    28    1
     4     1    29    1
     5     2     3    1
     6     2    20    1
     7     2     4    1
     8     4     5    1
     9     4    30    1
    10     4    31    1
    11     5     6    1
    12     5    32    1
    13     5    33    1
    14     6     7    1
    15     6     8    1
    16     6    19    1
    17     8     9   am
    18     8    34    1
    19     9    10    2
    20     9    11    1
    21    11    18    1
    22    11    12    2
    23    12    13    1
    24    12    35    1
    25    13    14    1
    26    13    17    2
    27    14    16    1
    28    14    15    1
    29    14    36    1
    30    15    16    1
    31    15    37    1
    32    15    38    1
    33    16    39    1
    34    16    40    1
    35    17    18    1
    36    18    41    1
    37    19    20    1
    38    19    42    1
    39    19    43    1
    40    20    21   am
    41    21    22    2
    42    21    23    1
    43    23    24    1
    44    23    44    1
    45    23    45    1
    46    24    25   am
    47    24    26    2
    48    25    46    1
    49    25    47    1
@<TRIPOS>SUBSTRUCTURE
     1 ZINC001018437438        1 TEMP              0 ****  ****    0 ROOT


##########                                Name:    ZINC000549381790
##########                DOCK_Rotatable_Bonds:                   7
##########                         Heavy_Atoms:                  23
##########                    Molecular_Weight:             337.846
##########                DOCK_Rotatable_Bonds:                   7
##########                       Formal_Charge:           0.0300006
##########                     HBond_Acceptors:                   5
##########                        HBond_Donors:                   0
##########                         Heavy_Atoms:                  23
##########                          Grid_Score:          -32.062874
##########                     Grid_vdw_energy:          -31.054773
##########                      Grid_es_energy:           -1.008100
##########           Internal_energy_repulsive:           85.047646

@<TRIPOS>MOLECULE
ZINC000549381790
 47 49 1 0 0
SMALL
USER_CHARGES


@<TRIPOS>ATOM
      1 C1         -1.4984    1.1312   45.5233 C.3     1  ZINC000549381790   -0.1400
      2 C2         -0.7434    0.4328   46.6559 C.3     1  ZINC000549381790    0.1500
      3 H3         -0.7658   -0.6457   46.4995 H       1  ZINC000549381790    0.0700
      4 C4          0.7095    0.9180   46.6804 C.3     1  ZINC000549381790   -0.1300
      5 C5          1.4214    0.3232   47.8976 C.3     1  ZINC000549381790   -0.1200
      6 C6          0.7313    0.8000   49.1777 C.3     1  ZINC000549381790   -0.1400
      7 C7         -0.7212    0.3134   49.1815 C.3     1  ZINC000549381790    0.1000
      8 N8         -1.3749    0.7570   47.9423 N.am    1  ZINC000549381790   -0.6100
      9 C9         -2.5287    1.4522   47.9854 C.2     1  ZINC000549381790    0.5200
     10 O10        -3.0583    1.8127   46.9556 O.2     1  ZINC000549381790   -0.5000
     11 C11        -3.1607    1.7817   49.3133 C.3     1  ZINC000549381790    0.0400
     12 O12        -4.5161    2.1856   49.1085 O.3     1  ZINC000549381790   -0.2800
     13 C13        -5.3029    2.2893   50.2127 C.ar    1  ZINC000549381790    0.1100
     14 C14        -6.1097    1.2268   50.5914 C.ar    1  ZINC000549381790   -0.1700
     15 C15        -6.9090    1.3315   51.7137 C.ar    1  ZINC000549381790   -0.1600
     16 C16        -6.9051    2.4990   52.4614 C.ar    1  ZINC000549381790    0.1100
     17 O17        -7.6920    2.6019   53.5659 O.3     1  ZINC000549381790   -0.3000
     18 C18        -7.1943    2.0216   54.7733 C.3     1  ZINC000549381790    0.0900
     19 C19        -8.2409    2.1698   55.8795 C.3     1  ZINC000549381790   -0.1600
     20 C20        -9.0551    0.9293   56.2524 C.3     1  ZINC000549381790   -0.1700
     21 C21        -7.9760    1.4504   57.2036 C.3     1  ZINC000549381790   -0.1700
     22 C22        -6.0977    3.5629   52.0826 C.ar    1  ZINC000549381790   -0.0300
     23 Cl23       -6.0921    5.0249   53.0188 Cl      1  ZINC000549381790   -0.0400
     24 C24        -5.2941    3.4557   50.9635 C.ar    1  ZINC000549381790   -0.1000
     25 H25        -1.5616    2.1990   45.7330 H       1  ZINC000549381790    0.0600
     26 H26        -0.9684    0.9762   44.5836 H       1  ZINC000549381790    0.0500
     27 H27        -2.5033    0.7160   45.4464 H       1  ZINC000549381790    0.0800
     28 H28         1.2156    0.5968   45.7700 H       1  ZINC000549381790    0.0800
     29 H29         0.7286    2.0059   46.7434 H       1  ZINC000549381790    0.0700
     30 H30         1.3803   -0.7649   47.8464 H       1  ZINC000549381790    0.0700
     31 H31         2.4621    0.6471   47.9037 H       1  ZINC000549381790    0.0700
     32 H32         1.2530    0.3948   50.0447 H       1  ZINC000549381790    0.0800
     33 H33         0.7503    1.8890   49.2171 H       1  ZINC000549381790    0.0700
     34 H34        -0.7418   -0.7752   49.2335 H       1  ZINC000549381790    0.0800
     35 H35        -1.2446    0.7323   50.0410 H       1  ZINC000549381790    0.0800
     36 H36        -3.1371    0.9011   49.9553 H       1  ZINC000549381790    0.0900
     37 H37        -2.6077    2.5922   49.7878 H       1  ZINC000549381790    0.0900
     38 H38        -6.1134    0.3174   50.0089 H       1  ZINC000549381790    0.1400
     39 H39        -7.5372    0.5038   52.0082 H       1  ZINC000549381790    0.1400
     40 H40        -6.9861    0.9643   54.6095 H       1  ZINC000549381790    0.0700
     41 H41        -6.2774    2.5308   55.0701 H       1  ZINC000549381790    0.0700
     42 H42        -8.7452    3.1351   55.9233 H       1  ZINC000549381790    0.1200
     43 H43       -10.0954    1.0783   56.5415 H       1  ZINC000549381790    0.1000
     44 H44        -8.8452    0.0077   55.7095 H       1  ZINC000549381790    0.1000
     45 H45        -7.0561    0.8716   57.2866 H       1  ZINC000549381790    0.1000
     46 H46        -8.3064    1.9423   58.1184 H       1  ZINC000549381790    0.1000
     47 H47        -4.6658    4.2831   50.6685 H       1  ZINC000549381790    0.1500
@<TRIPOS>BOND
     1     1     2    1
     2     1    25    1
     3     1    26    1
     4     1    27    1
     5     2     3    1
     6     2     8    1
     7     2     4    1
     8     4     5    1
     9     4    28    1
    10     4    29    1
    11     5     6    1
    12     5    30    1
    13     5    31    1
    14     6     7    1
    15     6    32    1
    16     6    33    1
    17     7     8    1
    18     7    34    1
    19     7    35    1
    20     8     9   am
    21     9    10    2
    22     9    11    1
    23    11    12    1
    24    11    36    1
    25    11    37    1
    26    12    13    1
    27    13    24   ar
    28    13    14   ar
    29    14    15   ar
    30    14    38    1
    31    15    16   ar
    32    15    39    1
    33    16    17    1
    34    16    22   ar
    35    17    18    1
    36    18    19    1
    37    18    40    1
    38    18    41    1
    39    19    21    1
    40    19    20    1
    41    19    42    1
    42    20    21    1
    43    20    43    1
    44    20    44    1
    45    21    45    1
    46    21    46    1
    47    22    23    1
    48    22    24   ar
    49    24    47    1
@<TRIPOS>SUBSTRUCTURE
     1 ZINC000549381790        1 TEMP              0 ****  ****    0 ROOT


##########                                Name:    ZINC000433533595
##########                DOCK_Rotatable_Bonds:                  10
##########                         Heavy_Atoms:                  24
##########                    Molecular_Weight:             397.312
##########                DOCK_Rotatable_Bonds:                  10
##########                       Formal_Charge:          0.00999916
##########                     HBond_Acceptors:                   5
##########                        HBond_Donors:                   1
##########                         Heavy_Atoms:                  24
##########                          Grid_Score:          -32.058300
##########                     Grid_vdw_energy:          -30.233442
##########                      Grid_es_energy:           -1.824857
##########           Internal_energy_repulsive:           16.886501

@<TRIPOS>MOLECULE
ZINC000433533595
 49 50 1 0 0
SMALL
USER_CHARGES


@<TRIPOS>ATOM
      1 C1          1.8128    0.9751   51.4388 C.3     1  ZINC000433533595   -0.1500
      2 C2          1.5687    1.6995   50.1136 C.3     1  ZINC000433533595   -0.1200
      3 C3          0.1356    2.2344   50.0811 C.3     1  ZINC000433533595   -0.1300
      4 C4         -0.8285    1.0908   49.7597 C.3     1  ZINC000433533595    0.1000
      5 N5         -1.3079    1.2287   48.3822 N.am    1  ZINC000433533595   -0.5500
      6 C6         -2.5466    1.7036   48.1441 C.2     1  ZINC000433533595    0.5100
      7 O7         -2.9437    1.8178   47.0031 O.2     1  ZINC000433533595   -0.5100
      8 C8         -3.4304    2.0891   49.2844 C.2     1  ZINC000433533595    0.5000
      9 O9         -4.3158    1.3413   49.6459 O.2     1  ZINC000433533595   -0.4900
     10 N10        -3.2452    3.2672   49.9122 N.am    1  ZINC000433533595   -0.6300
     11 C11        -4.0730    3.6283   50.9803 C.ar    1  ZINC000433533595    0.1200
     12 C12        -5.4498    3.6639   50.8122 C.ar    1  ZINC000433533595   -0.0600
     13 C13        -6.2659    4.0213   51.8699 C.ar    1  ZINC000433533595   -0.1100
     14 Br14       -8.1422    4.0687   51.6394 Br      1  ZINC000433533595   -0.0400
     15 C15        -5.7128    4.3436   53.0962 C.ar    1  ZINC000433533595   -0.0600
     16 C16        -4.3415    4.3102   53.2709 C.ar    1  ZINC000433533595   -0.1900
     17 C17        -3.5174    3.9478   52.2183 C.ar    1  ZINC000433533595    0.1300
     18 O18        -2.1687    3.9147   52.3890 O.3     1  ZINC000433533595   -0.3100
     19 C19        -1.5487    5.1011   52.8889 C.3     1  ZINC000433533595    0.0800
     20 C20        -0.8071    4.7804   54.1881 C.3     1  ZINC000433533595   -0.1500
     21 C21        -0.5562    5.6330   51.8530 C.3     1  ZINC000433533595   -0.1800
     22 C22        -0.4408    0.8505   47.2636 C.3     1  ZINC000433533595    0.0600
     23 C23         0.2222   -0.5272   47.3182 C.3     1  ZINC000433533595   -0.1900
     24 C24        -0.9263   -0.2693   46.3408 C.3     1  ZINC000433533595   -0.1800
     25 H25         1.1129    0.1448   51.5335 H       1  ZINC000433533595    0.0500
     26 H26         2.8338    0.5941   51.4619 H       1  ZINC000433533595    0.0500
     27 H27         1.6657    1.6704   52.2654 H       1  ZINC000433533595    0.0500
     28 H28         2.2686    2.5298   50.0189 H       1  ZINC000433533595    0.0700
     29 H29         1.7158    1.0042   49.2869 H       1  ZINC000433533595    0.0600
     30 H30        -0.1158    2.6593   51.0529 H       1  ZINC000433533595    0.0600
     31 H31         0.0529    3.0054   49.3151 H       1  ZINC000433533595    0.0700
     32 H32        -0.3115    0.1376   49.8707 H       1  ZINC000433533595    0.1100
     33 H33        -1.6757    1.1264   50.4445 H       1  ZINC000433533595    0.0800
     34 H34        -2.5378    3.8647   49.6233 H       1  ZINC000433533595    0.4300
     35 H35        -5.8840    3.4130   49.8557 H       1  ZINC000433533595    0.1600
     36 H36        -6.3540    4.6224   53.9194 H       1  ZINC000433533595    0.1400
     37 H37        -3.9132    4.5625   54.2297 H       1  ZINC000433533595    0.1500
     38 H38        -2.3111    5.8556   53.0823 H       1  ZINC000433533595    0.0800
     39 H39        -0.0447    4.0259   53.9945 H       1  ZINC000433533595    0.0700
     40 H40        -0.3341    5.6854   54.5694 H       1  ZINC000433533595    0.0800
     41 H41        -1.5142    4.4015   54.9261 H       1  ZINC000433533595    0.0700
     42 H42         0.2063    4.8784   51.6595 H       1  ZINC000433533595    0.0700
     43 H43        -1.0845    5.8614   50.9274 H       1  ZINC000433533595    0.0600
     44 H44        -0.0832    6.5379   52.2343 H       1  ZINC000433533595    0.0800
     45 H45         0.1260    1.6646   46.8120 H       1  ZINC000433533595    0.1400
     46 H46         1.2256   -0.6197   46.9027 H       1  ZINC000433533595    0.0900
     47 H47         0.0132   -1.1522   48.1865 H       1  ZINC000433533595    0.1400
     48 H48        -1.8907   -0.7244   46.5660 H       1  ZINC000433533595    0.1000
     49 H49        -0.6784   -0.1919   45.2822 H       1  ZINC000433533595    0.1000
@<TRIPOS>BOND
     1     1     2    1
     2     1    25    1
     3     1    26    1
     4     1    27    1
     5     2     3    1
     6     2    28    1
     7     2    29    1
     8     3     4    1
     9     3    30    1
    10     3    31    1
    11     4     5    1
    12     4    32    1
    13     4    33    1
    14     5     6   am
    15     5    22    1
    16     6     7    2
    17     6     8    1
    18     8     9    2
    19     8    10   am
    20    10    11    1
    21    10    34    1
    22    11    17   ar
    23    11    12   ar
    24    12    13   ar
    25    12    35    1
    26    13    14    1
    27    13    15   ar
    28    15    16   ar
    29    15    36    1
    30    16    17   ar
    31    16    37    1
    32    17    18    1
    33    18    19    1
    34    19    20    1
    35    19    21    1
    36    19    38    1
    37    20    39    1
    38    20    40    1
    39    20    41    1
    40    21    42    1
    41    21    43    1
    42    21    44    1
    43    22    24    1
    44    22    23    1
    45    22    45    1
    46    23    24    1
    47    23    46    1
    48    23    47    1
    49    24    48    1
    50    24    49    1
@<TRIPOS>SUBSTRUCTURE
     1 ZINC000433533595        1 TEMP              0 ****  ****    0 ROOT


##########                                Name:    ZINC001371344729
##########                DOCK_Rotatable_Bonds:                   9
##########                         Heavy_Atoms:                  24
##########                    Molecular_Weight:             332.399
##########                DOCK_Rotatable_Bonds:                   9
##########                       Formal_Charge:          0.00999983
##########                     HBond_Acceptors:                   6
##########                        HBond_Donors:                   1
##########                         Heavy_Atoms:                  24
##########                          Grid_Score:          -32.045013
##########                     Grid_vdw_energy:          -30.858528
##########                      Grid_es_energy:           -1.186486
##########           Internal_energy_repulsive:           27.622160

@<TRIPOS>MOLECULE
ZINC001371344729
 48 49 1 0 0
SMALL
USER_CHARGES


@<TRIPOS>ATOM
      1 C1         -0.5293    3.7597   45.5687 C.3     1  ZINC001371344729   -0.1800
      2 C2         -1.6363    2.7038   45.5513 C.3     1  ZINC001371344729    0.1000
      3 N3         -1.4467    1.7788   46.6714 N.am    1  ZINC001371344729   -0.6100
      4 C4         -1.3553    0.4536   46.4429 C.2     1  ZINC001371344729    0.5100
      5 O5         -1.1968   -0.3121   47.3700 O.2     1  ZINC001371344729   -0.5200
      6 C6         -1.4500   -0.0767   45.0354 C.3     1  ZINC001371344729   -0.0600
      7 C7         -0.1866    0.2596   44.2859 C.2     1  ZINC001371344729   -0.0100
      8 C8          0.0341    0.0394   42.9774 C.2     1  ZINC001371344729   -0.1600
      9 C9         -0.9265   -0.5826   41.9968 C.3     1  ZINC001371344729   -0.0800
     10 C10         1.3424    0.4979   42.6998 C.2     1  ZINC001371344729   -0.2100
     11 C11         1.8394    0.9796   43.8532 C.2     1  ZINC001371344729   -0.0300
     12 O12         0.9103    0.8292   44.8113 O.3     1  ZINC001371344729   -0.1700
     13 C13        -1.3563    2.2941   48.0397 C.3     1  ZINC001371344729    0.1200
     14 H14        -1.5565    3.3655   48.0385 H       1  ZINC001371344729    0.1100
     15 C15         0.0486    2.0383   48.5892 C.3     1  ZINC001371344729   -0.1600
     16 C16        -2.3857    1.5840   48.9212 C.3     1  ZINC001371344729    0.1100
     17 N17        -3.1406    2.5781   49.6881 N.am    1  ZINC001371344729   -0.7200
     18 C18        -4.3720    2.2810   50.1485 C.2     1  ZINC001371344729    0.5900
     19 O19        -4.8559    1.1872   49.9282 O.2     1  ZINC001371344729   -0.5300
     20 C20        -5.1320    3.2816   50.9185 C.2     1  ZINC001371344729   -0.2300
     21 C21        -4.6921    4.4991   51.3489 C.2     1  ZINC001371344729    0.0200
     22 O22        -5.6883    5.0986   52.0082 O.3     1  ZINC001371344729   -0.1700
     23 C23        -6.7794    4.3177   52.0406 C.2     1  ZINC001371344729   -0.0100
     24 C24        -8.0863    4.6697   52.7030 C.3     1  ZINC001371344729   -0.0800
     25 C25        -6.5208    3.1737   51.3889 C.2     1  ZINC001371344729   -0.1600
     26 H26         0.4405    3.2708   45.4760 H       1  ZINC001371344729    0.0700
     27 H27        -0.6704    4.4479   44.7353 H       1  ZINC001371344729    0.0700
     28 H28        -0.5691    4.3125   46.5073 H       1  ZINC001371344729    0.0600
     29 H29        -1.5963    2.1509   44.6128 H       1  ZINC001371344729    0.0900
     30 H30        -2.6062    3.1927   45.6440 H       1  ZINC001371344729    0.0800
     31 H31        -2.3030    0.3785   44.5322 H       1  ZINC001371344729    0.1100
     32 H32        -1.5792   -1.1587   45.0627 H       1  ZINC001371344729    0.1200
     33 H33        -1.5356    0.1975   41.5402 H       1  ZINC001371344729    0.0700
     34 H34        -0.3665   -1.1064   41.2221 H       1  ZINC001371344729    0.0700
     35 H35        -1.5722   -1.2888   42.5189 H       1  ZINC001371344729    0.0600
     36 H36         1.8452    0.4695   41.7443 H       1  ZINC001371344729    0.1500
     37 H37         2.8212    1.4092   43.9873 H       1  ZINC001371344729    0.2000
     38 H38         0.7820    2.5443   47.9612 H       1  ZINC001371344729    0.0700
     39 H39         0.1159    2.4217   49.6074 H       1  ZINC001371344729    0.0700
     40 H40         0.2487    0.9669   48.5904 H       1  ZINC001371344729    0.0700
     41 H41        -3.0700    1.0135   48.2930 H       1  ZINC001371344729    0.0800
     42 H42        -1.8733    0.9088   49.6064 H       1  ZINC001371344729    0.0800
     43 H43        -2.7541    3.4501   49.8647 H       1  ZINC001371344729    0.4000
     44 H44        -3.7070    4.9097   51.1831 H       1  ZINC001371344729    0.2100
     45 H45        -8.0718    4.3301   53.7388 H       1  ZINC001371344729    0.0800
     46 H46        -8.2276    5.7502   52.6769 H       1  ZINC001371344729    0.0800
     47 H47        -8.9051    4.1833   52.1728 H       1  ZINC001371344729    0.0900
     48 H48        -7.1951    2.3433   51.2400 H       1  ZINC001371344729    0.1600
@<TRIPOS>BOND
     1     1     2    1
     2     1    26    1
     3     1    27    1
     4     1    28    1
     5     2     3    1
     6     2    29    1
     7     2    30    1
     8     3     4   am
     9     3    13    1
    10     4     5    2
    11     4     6    1
    12     6     7    1
    13     6    31    1
    14     6    32    1
    15     7    12    1
    16     7     8    2
    17     8     9    1
    18     8    10    1
    19     9    33    1
    20     9    34    1
    21     9    35    1
    22    10    11    2
    23    10    36    1
    24    11    12    1
    25    11    37    1
    26    13    14    1
    27    13    15    1
    28    13    16    1
    29    15    38    1
    30    15    39    1
    31    15    40    1
    32    16    17    1
    33    16    41    1
    34    16    42    1
    35    17    18   am
    36    17    43    1
    37    18    19    2
    38    18    20    1
    39    20    25    1
    40    20    21    2
    41    21    22    1
    42    21    44    1
    43    22    23    1
    44    23    24    1
    45    23    25    2
    46    24    45    1
    47    24    46    1
    48    24    47    1
    49    25    48    1
@<TRIPOS>SUBSTRUCTURE
     1 ZINC001371344729        1 TEMP              0 ****  ****    0 ROOT


##########                                Name:    ZINC000840649129
##########                DOCK_Rotatable_Bonds:                   8
##########                         Heavy_Atoms:                  26
##########                    Molecular_Weight:             376.839
##########                DOCK_Rotatable_Bonds:                   8
##########                       Formal_Charge:          -0.0199998
##########                     HBond_Acceptors:                   7
##########                        HBond_Donors:                   3
##########                         Heavy_Atoms:                  26
##########                          Grid_Score:          -32.014469
##########                     Grid_vdw_energy:          -31.905899
##########                      Grid_es_energy:           -0.108570
##########           Internal_energy_repulsive:           11.805505

@<TRIPOS>MOLECULE
ZINC000840649129
 47 48 1 0 0
SMALL
USER_CHARGES


@<TRIPOS>ATOM
      1 C1         -2.2149    0.0094   44.0484 C.3     1  ZINC000840649129    0.0200
      2 O2         -1.4546    1.2192   44.0330 O.3     1  ZINC000840649129   -0.2900
      3 C3         -0.1131    1.1062   44.2070 C.ar    1  ZINC000840649129    0.1400
      4 C4          0.6510    0.4096   43.2834 C.ar    1  ZINC000840649129   -0.1700
      5 C5          2.0154    0.2935   43.4585 C.ar    1  ZINC000840649129   -0.1200
      6 C6          2.6341    0.8737   44.5608 C.ar    1  ZINC000840649129    0.1700
      7 N7          4.0180    0.7507   44.7298 N.pl3   1  ZINC000840649129   -0.8800
      8 C8          1.8844    1.5730   45.4909 C.ar    1  ZINC000840649129   -0.1000
      9 C9          0.5036    1.6984   45.3178 C.ar    1  ZINC000840649129   -0.1200
     10 C10        -0.3019    2.4419   46.3033 C.2     1  ZINC000840649129    0.5100
     11 O11        -1.0344    3.3394   45.9363 O.2     1  ZINC000840649129   -0.4800
     12 O12        -0.2262    2.1263   47.6111 O.3     1  ZINC000840649129   -0.3200
     13 C13        -1.4145    1.5577   48.2220 C.3     1  ZINC000840649129    0.0800
     14 H14        -2.1700    1.3854   47.4555 H       1  ZINC000840649129    0.1200
     15 C15        -1.9549    2.5134   49.2542 C.2     1  ZINC000840649129    0.5200
     16 O16        -1.5793    3.6666   49.2687 O.2     1  ZINC000840649129   -0.4900
     17 N17        -2.8558    2.0867   50.1613 N.am    1  ZINC000840649129   -0.6600
     18 C18        -3.3579    2.9744   51.1202 C.ar    1  ZINC000840649129    0.1600
     19 C19        -2.5100    3.5205   52.0739 C.ar    1  ZINC000840649129   -0.1400
     20 C20        -3.0083    4.3967   53.0189 C.ar    1  ZINC000840649129   -0.0900
     21 C21        -4.3500    4.7302   53.0157 C.ar    1  ZINC000840649129   -0.1300
     22 C22        -5.1982    4.1879   52.0674 C.ar    1  ZINC000840649129   -0.0900
     23 C23        -4.7053    3.3154   51.1159 C.ar    1  ZINC000840649129   -0.0700
     24 Cl24       -5.7702    2.6354   49.9254 Cl      1  ZINC000840649129   -0.0700
     25 C25        -1.0571    0.2302   48.8936 C.3     1  ZINC000840649129   -0.1100
     26 C26        -0.7193   -0.8086   47.8223 C.3     1  ZINC000840649129   -0.1600
     27 C27         0.1526    0.4311   49.8086 C.3     1  ZINC000840649129   -0.1500
     28 H28        -3.2696    0.2411   43.8988 H       1  ZINC000840649129    0.1000
     29 H29        -1.8702   -0.6466   43.2491 H       1  ZINC000840649129    0.0600
     30 H30        -2.0852   -0.4891   45.0090 H       1  ZINC000840649129    0.0600
     31 H31         0.1776   -0.0436   42.4251 H       1  ZINC000840649129    0.1400
     32 H32         2.6053   -0.2510   42.7360 H       1  ZINC000840649129    0.1300
     33 H33         4.5445    0.2612   44.0786 H       1  ZINC000840649129    0.4000
     34 H34         4.4506    1.1548   45.4981 H       1  ZINC000840649129    0.4000
     35 H35         2.3660    2.0235   46.3462 H       1  ZINC000840649129    0.1400
     36 H36        -3.1563    1.1645   50.1497 H       1  ZINC000840649129    0.4200
     37 H37        -1.4618    3.2605   52.0777 H       1  ZINC000840649129    0.1700
     38 H38        -2.3489    4.8215   53.7613 H       1  ZINC000840649129    0.1300
     39 H39        -4.7366    5.4153   53.7556 H       1  ZINC000840649129    0.1300
     40 H40        -6.2459    4.4501   52.0677 H       1  ZINC000840649129    0.1400
     41 H41        -1.9049   -0.1184   49.4833 H       1  ZINC000840649129    0.0900
     42 H42         0.0424   -0.4069   47.1540 H       1  ZINC000840649129    0.0700
     43 H43        -0.3433   -1.7135   48.2996 H       1  ZINC000840649129    0.0800
     44 H44        -1.6163   -1.0454   47.2502 H       1  ZINC000840649129    0.0600
     45 H45        -0.0881    1.1712   50.5719 H       1  ZINC000840649129    0.0500
     46 H46         0.4072   -0.5146   50.2871 H       1  ZINC000840649129    0.0600
     47 H47         1.0004    0.7798   49.2190 H       1  ZINC000840649129    0.0700
@<TRIPOS>BOND
     1     1     2    1
     2     1    28    1
     3     1    29    1
     4     1    30    1
     5     2     3    1
     6     3     9   ar
     7     3     4   ar
     8     4     5   ar
     9     4    31    1
    10     5     6   ar
    11     5    32    1
    12     6     7    1
    13     6     8   ar
    14     7    33    1
    15     7    34    1
    16     8     9   ar
    17     8    35    1
    18     9    10    1
    19    10    11    2
    20    10    12    1
    21    12    13    1
    22    13    14    1
    23    13    15    1
    24    13    25    1
    25    15    16    2
    26    15    17   am
    27    17    18    1
    28    17    36    1
    29    18    23   ar
    30    18    19   ar
    31    19    20   ar
    32    19    37    1
    33    20    21   ar
    34    20    38    1
    35    21    22   ar
    36    21    39    1
    37    22    23   ar
    38    22    40    1
    39    23    24    1
    40    25    26    1
    41    25    27    1
    42    25    41    1
    43    26    42    1
    44    26    43    1
    45    26    44    1
    46    27    45    1
    47    27    46    1
    48    27    47    1
@<TRIPOS>SUBSTRUCTURE
     1 ZINC000840649129        1 TEMP              0 ****  ****    0 ROOT


##########                                Name:    ZINC000279452407
##########                DOCK_Rotatable_Bonds:                   6
##########                         Heavy_Atoms:                  24
##########                    Molecular_Weight:              375.47
##########                DOCK_Rotatable_Bonds:                   6
##########                       Formal_Charge:          0.00999929
##########                     HBond_Acceptors:                  10
##########                        HBond_Donors:                   3
##########                         Heavy_Atoms:                  24
##########                          Grid_Score:          -31.997288
##########                     Grid_vdw_energy:          -29.973574
##########                      Grid_es_energy:           -2.023715
##########           Internal_energy_repulsive:           28.385233

@<TRIPOS>MOLECULE
ZINC000279452407
 45 47 1 0 0
SMALL
USER_CHARGES


@<TRIPOS>ATOM
      1 C1          0.7428    1.8226   46.1671 C.3     1  ZINC000279452407   -0.1600
      2 C2          0.2933    0.5992   45.3657 C.3     1  ZINC000279452407    0.0600
      3 H3          0.9758   -0.2319   45.5433 H       1  ZINC000279452407    0.0700
      4 O4          0.2627    0.9168   43.9625 O.3     1  ZINC000279452407   -0.3700
      5 C5         -0.8347    0.1757   43.3858 C.3     1  ZINC000279452407    0.0500
      6 C6         -1.9474    0.2777   44.4615 C.3     1  ZINC000279452407   -0.1400
      7 C7         -1.1326    0.2013   45.7743 C.3     1  ZINC000279452407    0.0700
      8 C8         -1.6898    1.1939   46.7915 C.3     1  ZINC000279452407    0.1100
      9 N9         -1.0122    0.9707   48.0798 N.am    1  ZINC000279452407   -0.6300
     10 C10        -0.4760    1.9967   48.7700 C.2     1  ZINC000279452407    0.7200
     11 O11        -0.5472    3.1281   48.3306 O.2     1  ZINC000279452407   -0.5800
     12 N12         0.1390    1.7685   49.9474 N.am    1  ZINC000279452407   -0.7500
     13 C13         0.7218    2.8837   50.6975 C.3     1  ZINC000279452407    0.2000
     14 C14        -0.3016    3.4320   51.6584 C.2     1  ZINC000279452407   -0.1700
     15 C15        -0.0266    3.9958   52.8356 C.2     1  ZINC000279452407   -0.1400
     16 C16        -1.1321    4.4274   53.5481 C.2     1  ZINC000279452407    0.0100
     17 C17        -2.3049    4.2140   52.9495 C.2     1  ZINC000279452407   -0.7900
     18 S18        -3.8777    4.6543   53.6107 S.o2    1  ZINC000279452407    2.7300
     19 N19        -3.7543    4.5795   55.2604 N.am    1  ZINC000279452407   -1.2500
     20 O20        -4.0809    6.0226   53.2852 O.2     1  ZINC000279452407   -0.9600
     21 O21        -4.7768    3.6226   53.2283 O.2     1  ZINC000279452407   -0.9500
     22 S22        -2.0407    3.4332   51.3958 S.3     1  ZINC000279452407    0.2500
     23 C23        -0.9394   -0.4076   48.5903 C.3     1  ZINC000279452407    0.0700
     24 C24        -0.3849   -1.3080   47.4805 C.3     1  ZINC000279452407    0.0400
     25 O25        -1.1601   -1.1230   46.2925 O.3     1  ZINC000279452407   -0.3600
     26 H26         0.8507    1.5496   47.2168 H       1  ZINC000279452407    0.0700
     27 H27         1.6996    2.1767   45.7836 H       1  ZINC000279452407    0.0600
     28 H28        -0.0019    2.6129   46.0718 H       1  ZINC000279452407    0.0800
     29 H29        -1.1598    0.6359   42.4527 H       1  ZINC000279452407    0.1000
     30 H30        -0.5520   -0.8644   43.2237 H       1  ZINC000279452407    0.0700
     31 H31        -2.4772    1.2273   44.3849 H       1  ZINC000279452407    0.1000
     32 H32        -2.6402   -0.5603   44.3857 H       1  ZINC000279452407    0.1000
     33 H33        -1.5022    2.2120   46.4505 H       1  ZINC000279452407    0.1200
     34 H34        -2.7617    1.0352   46.9090 H       1  ZINC000279452407    0.0800
     35 H35         0.1958    0.8658   50.2980 H       1  ZINC000279452407    0.4000
     36 H36         1.5910    2.5328   51.2537 H       1  ZINC000279452407    0.1000
     37 H37         1.0263    3.6680   50.0045 H       1  ZINC000279452407    0.0900
     38 H38         0.9821    4.1068   53.2050 H       1  ZINC000279452407    0.1600
     39 H39        -1.0513    4.9006   54.5156 H       1  ZINC000279452407    0.1600
     40 H40        -3.5174    3.7435   55.6916 H       1  ZINC000279452407    0.4200
     41 H41        -3.9190    5.3716   55.7955 H       1  ZINC000279452407    0.4200
     42 H42        -0.2777   -0.4432   49.4558 H       1  ZINC000279452407    0.0900
     43 H43        -1.9359   -0.7466   48.8734 H       1  ZINC000279452407    0.0900
     44 H44         0.6538   -1.0437   47.2823 H       1  ZINC000279452407    0.0600
     45 H45        -0.4426   -2.3502   47.7944 H       1  ZINC000279452407    0.1100
@<TRIPOS>BOND
     1     1     2    1
     2     1    26    1
     3     1    27    1
     4     1    28    1
     5     2     3    1
     6     2     7    1
     7     2     4    1
     8     4     5    1
     9     5     6    1
    10     5    29    1
    11     5    30    1
    12     6     7    1
    13     6    31    1
    14     6    32    1
    15     7    25    1
    16     7     8    1
    17     8     9    1
    18     8    33    1
    19     8    34    1
    20     9    10   am
    21     9    23    1
    22    10    11    2
    23    10    12   am
    24    12    13    1
    25    12    35    1
    26    13    14    1
    27    13    36    1
    28    13    37    1
    29    14    22    1
    30    14    15    2
    31    15    16    1
    32    15    38    1
    33    16    17    2
    34    16    39    1
    35    17    18    1
    36    17    22    1
    37    18    19   am
    38    18    20    2
    39    18    21    2
    40    19    40    1
    41    19    41    1
    42    23    24    1
    43    23    42    1
    44    23    43    1
    45    24    25    1
    46    24    44    1
    47    24    45    1
@<TRIPOS>SUBSTRUCTURE
     1 ZINC000279452407        1 TEMP              0 ****  ****    0 ROOT


##########                                Name:    ZINC000012979878
##########                DOCK_Rotatable_Bonds:                   7
##########                         Heavy_Atoms:                  26
##########                    Molecular_Weight:             388.874
##########                DOCK_Rotatable_Bonds:                   7
##########                       Formal_Charge:          -0.0100003
##########                     HBond_Acceptors:                   7
##########                        HBond_Donors:                   1
##########                         Heavy_Atoms:                  26
##########                          Grid_Score:          -31.989626
##########                     Grid_vdw_energy:          -32.962746
##########                      Grid_es_energy:            0.973119
##########           Internal_energy_repulsive:           10.667544

@<TRIPOS>MOLECULE
ZINC000012979878
 43 45 1 0 0
SMALL
USER_CHARGES


@<TRIPOS>ATOM
      1 C1         -1.5487   -0.4271   43.0388 C.3     1  <0>         0.0300
      2 O2         -0.2343    0.1328   43.0110 O.3     1  <0>        -0.3100
      3 C3          0.0923    0.9907   44.0131 C.ar    1  <0>         0.1500
      4 C4          1.3382    1.6017   44.0256 C.ar    1  <0>        -0.2200
      5 C5          1.6720    2.4741   45.0443 C.ar    1  <0>        -0.0600
      6 C6          0.7669    2.7410   46.0528 C.ar    1  <0>        -0.1800
      7 C7         -0.4822    2.1321   46.0455 C.ar    1  <0>         0.1800
      8 N8         -1.3986    2.4022   47.0666 N.am    1  <0>        -0.6700
      9 C9         -1.0795    2.1309   48.3477 C.2     1  <0>         0.6000
     10 O10         0.0061    1.6509   48.6157 O.2     1  <0>        -0.4900
     11 C11        -2.0406    2.4142   49.4185 C.2     1  <0>        -0.3000
     12 C12        -1.8502    3.2618   50.4607 C.2     1  <0>         0.1600
     13 C13        -0.5792    4.0479   50.6551 C.3     1  <0>        -0.0900
     14 N14        -2.8667    3.3383   51.2826 N.2     1  <0>        -0.4500
     15 C15        -3.9061    2.6160   51.0122 C.2     1  <0>         0.0600
     16 C16        -5.1641    2.5748   51.8410 C.3     1  <0>         0.1300
     17 O17        -6.2136    1.9687   51.0838 O.3     1  <0>        -0.3000
     18 C18        -7.2089    1.3629   51.7838 C.ar    1  <0>         0.1300
     19 C19        -8.0795    2.1222   52.5516 C.ar    1  <0>        -0.2000
     20 C20        -9.0904    1.5046   53.2624 C.ar    1  <0>        -0.0700
     21 C21        -9.2345    0.1295   53.2090 C.ar    1  <0>        -0.0700
     22 Cl22      -10.5052   -0.6444   54.1034 Cl      1  <0>        -0.0700
     23 C23        -8.3673   -0.6295   52.4432 C.ar    1  <0>        -0.0700
     24 C24        -7.3587   -0.0151   51.7265 C.ar    1  <0>        -0.1300
     25 S25        -3.6526    1.7207   49.5781 S.3     1  <0>         0.2000
     26 C26        -0.8210    1.2602   45.0204 C.ar    1  <0>        -0.1500
     27 H27        -1.6844   -0.9901   43.9621 H       1  <0>         0.0600
     28 H28        -2.2861    0.3742   42.9901 H       1  <0>         0.0600
     29 H29        -1.6784   -1.0923   42.1850 H       1  <0>         0.1000
     30 H30         2.0481    1.3949   43.2383 H       1  <0>         0.1300
     31 H31         2.6425    2.9477   45.0520 H       1  <0>         0.1300
     32 H32         1.0302    3.4230   46.8477 H       1  <0>         0.1300
     33 H33        -2.2640    2.7847   46.8529 H       1  <0>         0.4100
     34 H34        -0.6647    5.0083   50.1467 H       1  <0>         0.0900
     35 H35        -0.4139    4.2139   51.7197 H       1  <0>         0.0800
     36 H36         0.2600    3.4902   50.2396 H       1  <0>         0.1000
     37 H37        -4.9849    1.9922   52.7446 H       1  <0>         0.0900
     38 H38        -5.4526    3.5898   52.1142 H       1  <0>         0.1000
     39 H39        -7.9669    3.1955   52.5942 H       1  <0>         0.1400
     40 H40        -9.7684    2.0955   53.8603 H       1  <0>         0.1400
     41 H41        -8.4816   -1.7027   52.4025 H       1  <0>         0.1400
     42 H42        -6.6820   -0.6078   51.1290 H       1  <0>         0.1400
     43 H43        -1.7913    0.7860   45.0121 H       1  <0>         0.1400
@<TRIPOS>BOND
     1     1     2    1
     2     1    27    1
     3     1    28    1
     4     1    29    1
     5     2     3    1
     6     3    26   ar
     7     3     4   ar
     8     4     5   ar
     9     4    30    1
    10     5     6   ar
    11     5    31    1
    12     6     7   ar
    13     6    32    1
    14     7     8    1
    15     7    26   ar
    16     8     9   am
    17     8    33    1
    18     9    10    2
    19     9    11    1
    20    11    25    1
    21    11    12    2
    22    12    13    1
    23    12    14    1
    24    13    34    1
    25    13    35    1
    26    13    36    1
    27    14    15    2
    28    15    16    1
    29    15    25    1
    30    16    17    1
    31    16    37    1
    32    16    38    1
    33    17    18    1
    34    18    24   ar
    35    18    19   ar
    36    19    20   ar
    37    19    39    1
    38    20    21   ar
    39    20    40    1
    40    21    22    1
    41    21    23   ar
    42    23    24   ar
    43    23    41    1
    44    24    42    1
    45    26    43    1
@<TRIPOS>SUBSTRUCTURE
     1 <0>         1 TEMP              0 ****  ****    0 ROOT


##########                                Name:    ZINC000486710336
##########                DOCK_Rotatable_Bonds:                   6
##########                         Heavy_Atoms:                  31
##########                    Molecular_Weight:             420.555
##########                DOCK_Rotatable_Bonds:                   6
##########                       Formal_Charge:         1.49012e-07
##########                     HBond_Acceptors:                   6
##########                        HBond_Donors:                   1
##########                         Heavy_Atoms:                  31
##########                          Grid_Score:          -31.987000
##########                     Grid_vdw_energy:          -32.276054
##########                      Grid_es_energy:            0.289055
##########           Internal_energy_repulsive:           55.104019

@<TRIPOS>MOLECULE
ZINC000486710336
 63 67 1 0 0
SMALL
USER_CHARGES


@<TRIPOS>ATOM
      1 C1         -3.1494    6.3510   51.7032 C.3     1  ZINC000486710336    0.1000
      2 N2         -3.7165    5.0154   51.5015 N.pl3   1  ZINC000486710336   -0.3900
      3 N3         -5.0476    4.6415   51.7256 N.2     1  ZINC000486710336   -0.2800
      4 C4         -5.1753    3.3722   51.4346 C.2     1  ZINC000486710336    0.1000
      5 C5         -6.4463    2.5687   51.5355 C.3     1  ZINC000486710336   -0.0100
      6 C6         -6.1388    1.1240   52.0014 C.3     1  ZINC000486710336   -0.1200
      7 C7         -7.4850    0.6702   52.6186 C.3     1  ZINC000486710336   -0.1200
      8 C8         -8.0185    1.9302   53.3310 C.3     1  ZINC000486710336   -0.1200
      9 C9         -7.3581    3.1374   52.6423 C.3     1  ZINC000486710336   -0.1100
     10 C10        -3.9342    2.8877   51.0147 C.2     1  ZINC000486710336   -0.2600
     11 C11        -3.0464    3.9199   51.0581 C.2     1  ZINC000486710336    0.3000
     12 N12        -1.6979    3.8611   50.7180 N.am    1  ZINC000486710336   -0.6200
     13 C13        -1.3199    3.2888   49.5578 C.2     1  ZINC000486710336    0.5100
     14 O14        -2.1553    2.8233   48.8101 O.2     1  ZINC000486710336   -0.4800
     15 C15         0.1263    3.2273   49.1922 C.2     1  ZINC000486710336    0.5300
     16 O16         0.9750    3.3354   50.0530 O.2     1  ZINC000486710336   -0.5100
     17 N17         0.4895    3.0517   47.9062 N.am    1  ZINC000486710336   -0.5800
     18 C18        -0.4250    2.9105   46.7588 C.3     1  ZINC000486710336    0.1000
     19 C19         0.4490    2.6950   45.5033 C.3     1  ZINC000486710336   -0.0600
     20 H20         0.6193    3.6383   44.9842 H       1  ZINC000486710336    0.1000
     21 C21        -0.1823    1.6855   44.5795 C.ar    1  ZINC000486710336   -0.0700
     22 C22        -1.5261    1.3845   44.6990 C.ar    1  ZINC000486710336   -0.1100
     23 C23        -2.1051    0.4585   43.8516 C.ar    1  ZINC000486710336   -0.1200
     24 C24        -1.3403   -0.1663   42.8844 C.ar    1  ZINC000486710336   -0.1200
     25 C25         0.0033    0.1352   42.7642 C.ar    1  ZINC000486710336   -0.1200
     26 C26         0.5814    1.0645   43.6088 C.ar    1  ZINC000486710336   -0.1100
     27 C27         1.7796    2.1458   46.1032 C.3     1  ZINC000486710336   -0.0800
     28 H28         2.6361    2.3081   45.4490 H       1  ZINC000486710336    0.1100
     29 C29         1.5455    0.6633   46.4009 C.3     1  ZINC000486710336   -0.1100
     30 C30         2.6111    0.1300   47.3555 C.3     1  ZINC000486710336   -0.1200
     31 C31         2.5082    0.8922   48.6809 C.3     1  ZINC000486710336   -0.1100
     32 C32         2.8167    2.3658   48.4161 C.3     1  ZINC000486710336   -0.1400
     33 C33         1.8628    2.9738   47.4014 C.3     1  ZINC000486710336    0.1400
     34 H34         2.1976    3.9858   47.1730 H       1  ZINC000486710336    0.0800
     35 H35        -3.2459    6.9292   50.7843 H       1  ZINC000486710336    0.0800
     36 H36        -3.6846    6.8552   52.5078 H       1  ZINC000486710336    0.1000
     37 H37        -2.0957    6.2622   51.9676 H       1  ZINC000486710336    0.0800
     38 H38        -6.9681    2.5603   50.5785 H       1  ZINC000486710336    0.0900
     39 H39        -5.8705    0.4936   51.1537 H       1  ZINC000486710336    0.0700
     40 H40        -5.3489    1.1202   52.7524 H       1  ZINC000486710336    0.0800
     41 H41        -8.1753    0.3528   51.8370 H       1  ZINC000486710336    0.0700
     42 H42        -7.3237   -0.1344   53.3361 H       1  ZINC000486710336    0.0700
     43 H43        -9.1020    1.9875   53.2268 H       1  ZINC000486710336    0.0600
     44 H44        -7.7453    1.9066   54.3859 H       1  ZINC000486710336    0.0600
     45 H45        -6.7643    3.6996   53.3631 H       1  ZINC000486710336    0.0700
     46 H46        -8.1211    3.7806   52.2039 H       1  ZINC000486710336    0.0700
     47 H47        -3.7180    1.8754   50.7064 H       1  ZINC000486710336    0.1700
     48 H48        -1.0303    4.2320   51.3160 H       1  ZINC000486710336    0.4200
     49 H49        -1.0779    2.0506   46.9083 H       1  ZINC000486710336    0.0900
     50 H50        -1.0205    3.8163   46.6453 H       1  ZINC000486710336    0.0800
     51 H51        -2.1236    1.8728   45.4548 H       1  ZINC000486710336    0.1200
     52 H52        -3.1549    0.2230   43.9455 H       1  ZINC000486710336    0.1200
     53 H53        -1.7926   -0.8903   42.2228 H       1  ZINC000486710336    0.1200
     54 H54         0.6009   -0.3532   42.0088 H       1  ZINC000486710336    0.1200
     55 H55         1.6312    1.3000   43.5150 H       1  ZINC000486710336    0.1200
     56 H56         0.5623    0.5391   46.8548 H       1  ZINC000486710336    0.0700
     57 H57         1.5837    0.0995   45.4688 H       1  ZINC000486710336    0.0700
     58 H58         2.4458   -0.9330   47.5311 H       1  ZINC000486710336    0.0600
     59 H59         3.5996    0.2820   46.9219 H       1  ZINC000486710336    0.0600
     60 H60         1.4997    0.7948   49.0829 H       1  ZINC000486710336    0.0500
     61 H61         3.2281    0.4888   49.3931 H       1  ZINC000486710336    0.0600
     62 H62         2.7405    2.9202   49.3514 H       1  ZINC000486710336    0.1000
     63 H63         3.8327    2.4544   48.0314 H       1  ZINC000486710336    0.0700
@<TRIPOS>BOND
     1     1     2    1
     2     1    35    1
     3     1    36    1
     4     1    37    1
     5     2    11    1
     6     2     3    1
     7     3     4    2
     8     4     5    1
     9     4    10    1
    10     5     9    1
    11     5     6    1
    12     5    38    1
    13     6     7    1
    14     6    39    1
    15     6    40    1
    16     7     8    1
    17     7    41    1
    18     7    42    1
    19     8     9    1
    20     8    43    1
    21     8    44    1
    22     9    45    1
    23     9    46    1
    24    10    11    2
    25    10    47    1
    26    11    12    1
    27    12    13   am
    28    12    48    1
    29    13    14    2
    30    13    15    1
    31    15    16    2
    32    15    17   am
    33    17    33    1
    34    17    18    1
    35    18    19    1
    36    18    49    1
    37    18    50    1
    38    19    20    1
    39    19    21    1
    40    19    27    1
    41    21    26   ar
    42    21    22   ar
    43    22    23   ar
    44    22    51    1
    45    23    24   ar
    46    23    52    1
    47    24    25   ar
    48    24    53    1
    49    25    26   ar
    50    25    54    1
    51    26    55    1
    52    27    28    1
    53    27    33    1
    54    27    29    1
    55    29    30    1
    56    29    56    1
    57    29    57    1
    58    30    31    1
    59    30    58    1
    60    30    59    1
    61    31    32    1
    62    31    60    1
    63    31    61    1
    64    32    33    1
    65    32    62    1
    66    32    63    1
    67    33    34    1
@<TRIPOS>SUBSTRUCTURE
     1 ZINC000486710336        1 TEMP              0 ****  ****    0 ROOT


##########                                Name:    ZINC000816269301
##########                DOCK_Rotatable_Bonds:                   7
##########                         Heavy_Atoms:                  25
##########                    Molecular_Weight:             358.784
##########                DOCK_Rotatable_Bonds:                   7
##########                       Formal_Charge:           0.0100002
##########                     HBond_Acceptors:                   8
##########                        HBond_Donors:                   1
##########                         Heavy_Atoms:                  25
##########                          Grid_Score:          -31.982935
##########                     Grid_vdw_energy:          -31.794563
##########                      Grid_es_energy:           -0.188371
##########           Internal_energy_repulsive:            5.464867

@<TRIPOS>MOLECULE
ZINC000816269301
 40 42 1 0 0
SMALL
USER_CHARGES


@<TRIPOS>ATOM
      1 C1         -2.3993    4.7515   51.6477 C.3     1  ZINC000816269301    0.1000
      2 N2         -3.1247    3.6415   51.0246 N.pl3   1  ZINC000816269301   -0.4000
      3 N3         -2.8510    3.0563   49.7802 N.2     1  ZINC000816269301    0.0000
      4 N4         -3.6915    2.1085   49.5567 N.2     1  ZINC000816269301   -0.2000
      5 C5         -4.5540    1.9961   50.5949 C.ar    1  ZINC000816269301   -0.0300
      6 C6         -5.6338    1.1466   50.8502 C.ar    1  ZINC000816269301    0.0500
      7 C7         -6.3445    1.2790   52.0372 C.ar    1  ZINC000816269301   -0.1400
      8 C8         -7.4858    0.3853   52.3142 C.2     1  ZINC000816269301    0.5200
      9 O9         -7.5581   -0.6958   51.7648 O.2     1  ZINC000816269301   -0.5000
     10 O10        -8.4475    0.7682   53.1766 O.3     1  ZINC000816269301   -0.3500
     11 C11        -9.3057   -0.2734   53.7120 C.3     1  ZINC000816269301    0.0500
     12 C12        -9.9835    0.2299   54.9879 C.3     1  ZINC000816269301    0.1200
     13 N13       -11.1205   -0.6355   55.3110 N.am    1  ZINC000816269301   -0.7200
     14 C14       -10.9316   -1.7511   56.0435 C.2     1  ZINC000816269301    0.5600
     15 O15        -9.8179   -2.0381   56.4373 O.2     1  ZINC000816269301   -0.5300
     16 C16       -12.0782   -2.6250   56.3677 C.ar    1  ZINC000816269301   -0.1300
     17 C17       -13.3837   -2.1655   56.1840 C.ar    1  ZINC000816269301   -0.0700
     18 C18       -14.4497   -2.9856   56.4884 C.ar    1  ZINC000816269301   -0.1200
     19 C19       -14.2272   -4.2630   56.9756 C.ar    1  ZINC000816269301   -0.0100
     20 Cl20      -15.5742   -5.2900   57.3562 Cl      1  ZINC000816269301   -0.0600
     21 C21       -12.9343   -4.7245   57.1601 C.ar    1  ZINC000816269301   -0.1200
     22 C22       -11.8603   -3.9157   56.8538 C.ar    1  ZINC000816269301   -0.0500
     23 C23        -5.9810    2.2586   52.9731 C.ar    1  ZINC000816269301   -0.0200
     24 C24        -4.9289    3.0899   52.7296 C.ar    1  ZINC000816269301   -0.1300
     25 C25        -4.2004    2.9690   51.5485 C.ar    1  ZINC000816269301    0.1100
     26 H26        -1.5820    4.3578   52.2519 H       1  ZINC000816269301    0.0900
     27 H27        -1.9966    5.4032   50.8722 H       1  ZINC000816269301    0.1000
     28 H28        -3.0796    5.3194   52.2823 H       1  ZINC000816269301    0.1000
     29 H29        -5.9144    0.3924   50.1298 H       1  ZINC000816269301    0.1600
     30 H30       -10.0657   -0.5326   52.9749 H       1  ZINC000816269301    0.0800
     31 H31        -8.7071   -1.1548   53.9420 H       1  ZINC000816269301    0.1000
     32 H32        -9.2684    0.2124   55.8104 H       1  ZINC000816269301    0.1000
     33 H33       -10.3355    1.2500   54.8343 H       1  ZINC000816269301    0.0900
     34 H34       -12.0093   -0.4058   54.9977 H       1  ZINC000816269301    0.4000
     35 H35       -13.5584   -1.1696   55.8045 H       1  ZINC000816269301    0.1400
     36 H36       -15.4600   -2.6312   56.3470 H       1  ZINC000816269301    0.1400
     37 H37       -12.7669   -5.7214   57.5403 H       1  ZINC000816269301    0.1400
     38 H38       -10.8526   -4.2766   56.9977 H       1  ZINC000816269301    0.1500
     39 H39        -6.5389    2.3549   53.8929 H       1  ZINC000816269301    0.1500
     40 H40        -4.6564    3.8411   53.4562 H       1  ZINC000816269301    0.1400
@<TRIPOS>BOND
     1     1     2    1
     2     1    26    1
     3     1    27    1
     4     1    28    1
     5     2    25    1
     6     2     3    1
     7     3     4    2
     8     4     5    1
     9     5    25   ar
    10     5     6   ar
    11     6     7   ar
    12     6    29    1
    13     7     8    1
    14     7    23   ar
    15     8     9    2
    16     8    10    1
    17    10    11    1
    18    11    12    1
    19    11    30    1
    20    11    31    1
    21    12    13    1
    22    12    32    1
    23    12    33    1
    24    13    14   am
    25    13    34    1
    26    14    15    2
    27    14    16    1
    28    16    22   ar
    29    16    17   ar
    30    17    18   ar
    31    17    35    1
    32    18    19   ar
    33    18    36    1
    34    19    20    1
    35    19    21   ar
    36    21    22   ar
    37    21    37    1
    38    22    38    1
    39    23    24   ar
    40    23    39    1
    41    24    25   ar
    42    24    40    1
@<TRIPOS>SUBSTRUCTURE
     1 ZINC000816269301        1 TEMP              0 ****  ****    0 ROOT


##########                                Name:    ZINC000508571532
##########                DOCK_Rotatable_Bonds:                   9
##########                         Heavy_Atoms:                  30
##########                    Molecular_Weight:             422.407
##########                DOCK_Rotatable_Bonds:                   9
##########                       Formal_Charge:           0.0100001
##########                     HBond_Acceptors:                  10
##########                        HBond_Donors:                   0
##########                         Heavy_Atoms:                  30
##########                          Grid_Score:          -31.978273
##########                     Grid_vdw_energy:          -30.963503
##########                      Grid_es_energy:           -1.014770
##########           Internal_energy_repulsive:           25.001171

@<TRIPOS>MOLECULE
ZINC000508571532
 51 53 1 0 0
SMALL
USER_CHARGES


@<TRIPOS>ATOM
      1 C1         -8.9307    6.4089   50.4636 C.3     1  ZINC000508571532    0.0300
      2 O2         -8.7086    5.7051   51.6871 O.3     1  ZINC000508571532   -0.3200
      3 C3         -7.4874    5.1311   51.8564 C.ar    1  ZINC000508571532    0.0900
      4 C4         -7.2072    4.4270   53.0180 C.ar    1  ZINC000508571532   -0.1700
      5 C5         -5.9668    3.8440   53.1901 C.ar    1  ZINC000508571532   -0.1100
      6 C6         -5.0018    3.9623   52.2009 C.ar    1  ZINC000508571532    0.0900
      7 O7         -3.7806    3.3888   52.3705 O.3     1  ZINC000508571532   -0.3100
      8 C8         -2.7233    3.8528   51.5285 C.3     1  ZINC000508571532    0.1500
      9 C9         -2.6843    3.0258   50.2692 C.2     1  ZINC000508571532    0.1700
     10 N10        -3.7001    2.4482   49.6928 N.2     1  ZINC000508571532   -0.2500
     11 N11        -3.3122    1.8242   48.6383 N.2     1  ZINC000508571532   -0.3000
     12 C12        -2.0175    1.9714   48.4841 C.2     1  ZINC000508571532    0.3500
     13 N13        -1.2442    1.4434   47.4625 N.3     1  ZINC000508571532   -0.4600
     14 C14        -1.2278   -0.0244   47.5194 C.3     1  ZINC000508571532    0.0300
     15 C15        -1.7112    1.9142   46.1516 C.3     1  ZINC000508571532    0.1100
     16 C16        -0.8257    1.3500   45.0706 C.ar    1  ZINC000508571532   -0.0900
     17 C17        -1.3309    0.4289   44.1739 C.ar    1  ZINC000508571532   -0.0600
     18 C18        -0.5187   -0.0896   43.1820 C.ar    1  ZINC000508571532   -0.1300
     19 C19         0.8002    0.3128   43.0848 C.ar    1  ZINC000508571532   -0.0700
     20 C20         1.3104    1.2343   43.9791 C.ar    1  ZINC000508571532   -0.1900
     21 C21         0.4963    1.7597   44.9717 C.ar    1  ZINC000508571532    0.1100
     22 O22         0.9956    2.6662   45.8524 O.3     1  ZINC000508571532   -0.3100
     23 C23         1.0494    4.0277   45.4217 C.3     1  ZINC000508571532    0.6000
     24 F24        -0.1486    4.3618   44.7808 F       1  ZINC000508571532   -0.1600
     25 F25         1.2330    4.8607   46.5306 F       1  ZINC000508571532   -0.1300
     26 F26         2.1161    4.1935   44.5321 F       1  ZINC000508571532   -0.1600
     27 N27        -1.5772    2.7475   49.5164 N.pl3   1  ZINC000508571532   -0.4500
     28 C28        -0.2021    3.1839   49.7710 C.3     1  ZINC000508571532    0.0800
     29 C29        -5.2824    4.6652   51.0387 C.ar    1  ZINC000508571532   -0.1700
     30 C30        -6.5241    5.2451   50.8651 C.ar    1  ZINC000508571532   -0.1100
     31 H31        -9.9415    6.8166   50.4572 H       1  ZINC000508571532    0.1000
     32 H32        -8.2102    7.2222   50.3762 H       1  ZINC000508571532    0.0600
     33 H33        -8.8097    5.7246   49.6237 H       1  ZINC000508571532    0.0600
     34 H34        -7.9587    4.3349   53.7882 H       1  ZINC000508571532    0.1400
     35 H35        -5.7484    3.2963   54.0949 H       1  ZINC000508571532    0.1300
     36 H36        -2.8955    4.8979   51.2716 H       1  ZINC000508571532    0.0800
     37 H37        -1.7729    3.7595   52.0540 H       1  ZINC000508571532    0.1000
     38 H38        -2.2182   -0.4086   47.2750 H       1  ZINC000508571532    0.0600
     39 H39        -0.5022   -0.4078   46.8022 H       1  ZINC000508571532    0.0800
     40 H40        -0.9510   -0.3460   48.5234 H       1  ZINC000508571532    0.0700
     41 H41        -2.7370    1.5826   45.9908 H       1  ZINC000508571532    0.0700
     42 H42        -1.6723    3.0030   46.1217 H       1  ZINC000508571532    0.0900
     43 H43        -2.3611    0.1130   44.2478 H       1  ZINC000508571532    0.1400
     44 H44        -0.9155   -0.8102   42.4823 H       1  ZINC000508571532    0.1300
     45 H45         1.4326   -0.0938   42.3095 H       1  ZINC000508571532    0.1400
     46 H46         2.3410    1.5480   43.9029 H       1  ZINC000508571532    0.1400
     47 H47        -0.0521    4.1774   49.3485 H       1  ZINC000508571532    0.0900
     48 H48        -0.0239    3.2155   50.8459 H       1  ZINC000508571532    0.0900
     49 H49         0.4930    2.4835   49.3080 H       1  ZINC000508571532    0.1000
     50 H50        -4.5311    4.7571   50.2684 H       1  ZINC000508571532    0.1400
     51 H51        -6.7427    5.7924   49.9601 H       1  ZINC000508571532    0.1400
@<TRIPOS>BOND
     1     1     2    1
     2     1    31    1
     3     1    32    1
     4     1    33    1
     5     2     3    1
     6     3    30   ar
     7     3     4   ar
     8     4     5   ar
     9     4    34    1
    10     5     6   ar
    11     5    35    1
    12     6     7    1
    13     6    29   ar
    14     7     8    1
    15     8     9    1
    16     8    36    1
    17     8    37    1
    18     9    27    1
    19     9    10    2
    20    10    11    1
    21    11    12    2
    22    12    13    1
    23    12    27    1
    24    13    14    1
    25    13    15    1
    26    14    38    1
    27    14    39    1
    28    14    40    1
    29    15    16    1
    30    15    41    1
    31    15    42    1
    32    16    21   ar
    33    16    17   ar
    34    17    18   ar
    35    17    43    1
    36    18    19   ar
    37    18    44    1
    38    19    20   ar
    39    19    45    1
    40    20    21   ar
    41    20    46    1
    42    21    22    1
    43    22    23    1
    44    23    24    1
    45    23    25    1
    46    23    26    1
    47    27    28    1
    48    28    47    1
    49    28    48    1
    50    28    49    1
    51    29    30   ar
    52    29    50    1
    53    30    51    1
@<TRIPOS>SUBSTRUCTURE
     1 ZINC000508571532        1 TEMP              0 ****  ****    0 ROOT


##########                                Name:    ZINC001070580102
##########                DOCK_Rotatable_Bonds:                   8
##########                         Heavy_Atoms:                  25
##########                    Molecular_Weight:              349.39
##########                DOCK_Rotatable_Bonds:                   8
##########                       Formal_Charge:          -0.0100003
##########                     HBond_Acceptors:                   9
##########                        HBond_Donors:                   3
##########                         Heavy_Atoms:                  25
##########                          Grid_Score:          -31.946245
##########                     Grid_vdw_energy:          -29.941965
##########                      Grid_es_energy:           -2.004280
##########           Internal_energy_repulsive:           21.743353

@<TRIPOS>MOLECULE
ZINC001070580102
 48 50 1 0 0
SMALL
USER_CHARGES


@<TRIPOS>ATOM
      1 C1          2.7148    0.9408   42.7116 C.3     1  ZINC001070580102   -0.0800
      2 C2          2.2320    0.8102   44.1332 C.2     1  ZINC001070580102   -0.0100
      3 C3          1.0126    0.3919   44.5053 C.2     1  ZINC001070580102   -0.1900
      4 C4          1.0040    0.4284   45.9751 C.2     1  ZINC001070580102   -0.2500
      5 C5         -0.1086    0.0607   46.8689 C.2     1  ZINC001070580102    0.6000
      6 O6         -1.1363   -0.3946   46.4049 O.2     1  ZINC001070580102   -0.5300
      7 N7          0.0130    0.2289   48.2006 N.am    1  ZINC001070580102   -0.7200
      8 C8         -1.0937   -0.1349   49.0889 C.3     1  ZINC001070580102    0.2000
      9 C9         -2.0872    0.9969   49.1433 C.2     1  ZINC001070580102    0.2600
     10 N10        -2.4041    1.6906   50.2065 N.2     1  ZINC001070580102   -0.5100
     11 C11        -3.3141    2.6112   49.8907 C.2     1  ZINC001070580102    0.2300
     12 C12        -3.9254    3.6022   50.8472 C.3     1  ZINC001070580102    0.1400
     13 H13        -4.2661    4.4783   50.2953 H       1  ZINC001070580102    0.0800
     14 C14        -2.8801    4.0250   51.8828 C.3     1  ZINC001070580102    0.0800
     15 O15        -3.4858    4.9070   52.8316 O.3     1  ZINC001070580102   -0.3800
     16 C16        -4.5999    4.3336   53.5212 C.3     1  ZINC001070580102    0.0600
     17 C17        -5.6628    3.9140   52.5023 C.3     1  ZINC001070580102    0.0200
     18 N18        -5.0667    2.9810   51.5349 N.3     1  ZINC001070580102   -0.5200
     19 C19        -6.0703    2.5094   50.5714 C.3     1  ZINC001070580102    0.0600
     20 C20        -6.1279    0.9808   50.6021 C.3     1  ZINC001070580102    0.0800
     21 O21        -6.6224    0.5482   51.8711 O.3     1  ZINC001070580102   -0.5700
     22 N22        -3.5900    2.5158   48.6166 N.2     1  ZINC001070580102   -0.2700
     23 N23        -2.7979    1.4740   48.1068 N.pl3   1  ZINC001070580102   -0.4700
     24 C24         2.2414    0.8730   46.3386 C.2     1  ZINC001070580102    0.0900
     25 C25         2.7238    1.0801   47.7512 C.3     1  ZINC001070580102   -0.0900
     26 O26         2.9549    1.0885   45.2292 O.3     1  ZINC001070580102   -0.1700
     27 H27         3.7447    1.2974   42.7089 H       1  ZINC001070580102    0.0800
     28 H28         2.6656   -0.0311   42.2204 H       1  ZINC001070580102    0.0900
     29 H29         2.0832    1.6503   42.1771 H       1  ZINC001070580102    0.0900
     30 H30         0.2028    0.0902   43.8576 H       1  ZINC001070580102    0.1500
     31 H31         0.8331    0.5910   48.5709 H       1  ZINC001070580102    0.4000
     32 H32        -1.5845   -1.0313   48.7096 H       1  ZINC001070580102    0.1000
     33 H33        -0.7078   -0.3281   50.0899 H       1  ZINC001070580102    0.1100
     34 H34        -2.4998    3.1425   52.3973 H       1  ZINC001070580102    0.0700
     35 H35        -2.0585    4.5376   51.3822 H       1  ZINC001070580102    0.1000
     36 H36        -4.2696    3.4601   54.0833 H       1  ZINC001070580102    0.0600
     37 H37        -5.0222    5.0693   54.2056 H       1  ZINC001070580102    0.1000
     38 H38        -6.4887    3.4247   53.0185 H       1  ZINC001070580102    0.1200
     39 H39        -6.0316    4.7952   51.9773 H       1  ZINC001070580102    0.0400
     40 H40        -7.0467    2.9151   50.8358 H       1  ZINC001070580102    0.0500
     41 H41        -5.7974    2.8427   49.5701 H       1  ZINC001070580102    0.0800
     42 H42        -6.7916    0.6263   49.8135 H       1  ZINC001070580102    0.0500
     43 H43        -5.1281    0.5763   50.4446 H       1  ZINC001070580102    0.0600
     44 H44        -6.1375    0.9090   52.6260 H       1  ZINC001070580102    0.3800
     45 H45        -2.7734    1.1574   47.1902 H       1  ZINC001070580102    0.4400
     46 H46         3.1809    0.1609   48.1175 H       1  ZINC001070580102    0.0900
     47 H47         3.4597    1.8841   47.7696 H       1  ZINC001070580102    0.0800
     48 H48         1.8800    1.3453   48.3881 H       1  ZINC001070580102    0.1100
@<TRIPOS>BOND
     1     1     2    1
     2     1    27    1
     3     1    28    1
     4     1    29    1
     5     2    26    1
     6     2     3    2
     7     3     4    1
     8     3    30    1
     9     4     5    1
    10     4    24    2
    11     5     6    2
    12     5     7   am
    13     7     8    1
    14     7    31    1
    15     8     9    1
    16     8    32    1
    17     8    33    1
    18     9    23    1
    19     9    10    2
    20    10    11    1
    21    11    12    1
    22    11    22    2
    23    12    13    1
    24    12    18    1
    25    12    14    1
    26    14    15    1
    27    14    34    1
    28    14    35    1
    29    15    16    1
    30    16    17    1
    31    16    36    1
    32    16    37    1
    33    17    18    1
    34    17    38    1
    35    17    39    1
    36    18    19    1
    37    19    20    1
    38    19    40    1
    39    19    41    1
    40    20    21    1
    41    20    42    1
    42    20    43    1
    43    21    44    1
    44    22    23    1
    45    23    45    1
    46    24    25    1
    47    24    26    1
    48    25    46    1
    49    25    47    1
    50    25    48    1
@<TRIPOS>SUBSTRUCTURE
     1 ZINC001070580102        1 TEMP              0 ****  ****    0 ROOT


##########                                Name:    ZINC000450219577
##########                DOCK_Rotatable_Bonds:                   8
##########                         Heavy_Atoms:                  26
##########                    Molecular_Weight:             353.421
##########                DOCK_Rotatable_Bonds:                   8
##########                       Formal_Charge:          -0.0199997
##########                     HBond_Acceptors:                   6
##########                        HBond_Donors:                   1
##########                         Heavy_Atoms:                  26
##########                          Grid_Score:          -31.939117
##########                     Grid_vdw_energy:          -31.675449
##########                      Grid_es_energy:           -0.263667
##########           Internal_energy_repulsive:           19.963989

@<TRIPOS>MOLECULE
ZINC000450219577
 49 51 1 0 0
SMALL
USER_CHARGES


@<TRIPOS>ATOM
      1 C1        -11.8818    1.8345   54.2979 C.3     1  ZINC000450219577   -0.1800
      2 C2        -12.6306    0.7067   53.5849 C.3     1  ZINC000450219577    0.1200
      3 C3        -14.0636    0.6308   54.1156 C.3     1  ZINC000450219577   -0.1800
      4 C4        -12.6578    0.9841   52.0805 C.3     1  ZINC000450219577   -0.1400
      5 O5        -11.9554   -0.5546   53.8324 O.3     1  ZINC000450219577   -0.3400
      6 C6        -11.4763   -0.7569   55.0699 C.2     1  ZINC000450219577    0.4700
      7 O7        -12.1772   -0.5452   56.0311 O.2     1  ZINC000450219577   -0.5000
      8 C8        -10.0644   -1.2479   55.2603 C.3     1  ZINC000450219577    0.2000
      9 H9         -9.9930   -2.2850   54.9325 H       1  ZINC000450219577    0.1400
     10 N10        -9.1491   -0.4218   54.4691 N.am    1  ZINC000450219577   -0.7100
     11 C11        -8.9712   -0.6792   53.1582 C.2     1  ZINC000450219577    0.5800
     12 O12        -9.5713   -1.5960   52.6320 O.2     1  ZINC000450219577   -0.5200
     13 C13        -8.0463    0.1533   52.3602 C.ar    1  ZINC000450219577   -0.2500
     14 C14        -8.1262    1.5501   52.3920 C.ar    1  ZINC000450219577    0.1900
     15 N15        -7.2791    2.2555   51.6632 N.ar    1  ZINC000450219577   -0.5100
     16 C16        -6.3698    1.6619   50.9151 C.ar    1  ZINC000450219577    0.3800
     17 C17        -5.4267    2.5106   50.1021 C.3     1  ZINC000450219577   -0.1100
     18 C18        -4.2095    3.0988   50.8187 C.3     1  ZINC000450219577   -0.1500
     19 C19        -4.0306    1.9487   49.8256 C.3     1  ZINC000450219577   -0.1500
     20 N20        -6.2592    0.3491   50.8562 N.ar    1  ZINC000450219577   -0.5200
     21 C21        -7.0621   -0.4329   51.5563 C.ar    1  ZINC000450219577    0.2200
     22 C22        -9.6924   -1.1549   56.7177 C.ar    1  ZINC000450219577   -0.1100
     23 C23        -9.8433   -2.2549   57.5412 C.ar    1  ZINC000450219577   -0.1000
     24 C24        -9.5020   -2.1696   58.8780 C.ar    1  ZINC000450219577   -0.1200
     25 C25        -9.0094   -0.9844   59.3913 C.ar    1  ZINC000450219577   -0.1100
     26 C26        -8.8577    0.1154   58.5677 C.ar    1  ZINC000450219577   -0.1200
     27 C27        -9.1949    0.0288   57.2299 C.ar    1  ZINC000450219577   -0.0800
     28 H28       -11.8624    1.6370   55.3697 H       1  ZINC000450219577    0.0800
     29 H29       -10.8609    1.8886   53.9198 H       1  ZINC000450219577    0.0600
     30 H30       -12.3886    2.7814   54.1121 H       1  ZINC000450219577    0.0700
     31 H31       -14.5705    1.5777   53.9297 H       1  ZINC000450219577    0.0700
     32 H32       -14.5971   -0.1725   53.6075 H       1  ZINC000450219577    0.0600
     33 H33       -14.0442    0.4333   55.1873 H       1  ZINC000450219577    0.0800
     34 H34       -11.6369    1.0381   51.7025 H       1  ZINC000450219577    0.0700
     35 H35       -13.1913    0.1806   51.5726 H       1  ZINC000450219577    0.0700
     36 H36       -13.1647    1.9310   51.8947 H       1  ZINC000450219577    0.0800
     37 H37        -8.6711    0.3106   54.8887 H       1  ZINC000450219577    0.4100
     38 H38        -8.8685    2.0436   53.0018 H       1  ZINC000450219577    0.1700
     39 H39        -5.8906    3.1126   49.3208 H       1  ZINC000450219577    0.1300
     40 H40        -3.8726    4.0882   50.5090 H       1  ZINC000450219577    0.1000
     41 H41        -4.0910    2.8719   51.8782 H       1  ZINC000450219577    0.1100
     42 H42        -3.7944    0.9652   50.2318 H       1  ZINC000450219577    0.1000
     43 H43        -3.5761    2.1814   48.8626 H       1  ZINC000450219577    0.1100
     44 H44        -6.9655   -1.5072   51.5028 H       1  ZINC000450219577    0.1800
     45 H45       -10.2281   -3.1810   57.1401 H       1  ZINC000450219577    0.1200
     46 H46        -9.6205   -3.0288   59.5214 H       1  ZINC000450219577    0.1200
     47 H47        -8.7435   -0.9175   60.4359 H       1  ZINC000450219577    0.1300
     48 H48        -8.4732    1.0415   58.9688 H       1  ZINC000450219577    0.1300
     49 H49        -9.0764    0.8880   56.5864 H       1  ZINC000450219577    0.1300
@<TRIPOS>BOND
     1     1     2    1
     2     1    28    1
     3     1    29    1
     4     1    30    1
     5     2     3    1
     6     2     4    1
     7     2     5    1
     8     3    31    1
     9     3    32    1
    10     3    33    1
    11     4    34    1
    12     4    35    1
    13     4    36    1
    14     5     6    1
    15     6     7    2
    16     6     8    1
    17     8     9    1
    18     8    10    1
    19     8    22    1
    20    10    11   am
    21    10    37    1
    22    11    12    2
    23    11    13    1
    24    13    21   ar
    25    13    14   ar
    26    14    15   ar
    27    14    38    1
    28    15    16   ar
    29    16    17    1
    30    16    20   ar
    31    17    19    1
    32    17    18    1
    33    17    39    1
    34    18    19    1
    35    18    40    1
    36    18    41    1
    37    19    42    1
    38    19    43    1
    39    20    21   ar
    40    21    44    1
    41    22    27   ar
    42    22    23   ar
    43    23    24   ar
    44    23    45    1
    45    24    25   ar
    46    24    46    1
    47    25    26   ar
    48    25    47    1
    49    26    27   ar
    50    26    48    1
    51    27    49    1
@<TRIPOS>SUBSTRUCTURE
     1 ZINC000450219577        1 TEMP              0 ****  ****    0 ROOT


##########                                Name:    ZINC000174621331
##########                DOCK_Rotatable_Bonds:                   8
##########                         Heavy_Atoms:                  25
##########                    Molecular_Weight:             366.438
##########                DOCK_Rotatable_Bonds:                   8
##########                       Formal_Charge:        -5.96046e-08
##########                     HBond_Acceptors:                   8
##########                        HBond_Donors:                   3
##########                         Heavy_Atoms:                  25
##########                          Grid_Score:          -31.916821
##########                     Grid_vdw_energy:          -31.178982
##########                      Grid_es_energy:           -0.737839
##########           Internal_energy_repulsive:           20.253496

@<TRIPOS>MOLECULE
ZINC000174621331
 47 48 1 0 0
SMALL
USER_CHARGES


@<TRIPOS>ATOM
      1 C1         -1.3060   -1.1451   46.9138 C.3     1  ZINC000174621331    0.0300
      2 O2         -1.1245   -1.4533   48.2974 O.3     1  ZINC000174621331   -0.3800
      3 C3          0.0699   -0.9090   48.8624 C.3     1  ZINC000174621331    0.0500
      4 C4          0.0370    0.6166   48.7519 C.3     1  ZINC000174621331    0.2400
      5 H5         -0.1312    0.9022   47.7135 H       1  ZINC000174621331    0.1300
      6 N6         -1.0468    1.1433   49.5851 N.am    1  ZINC000174621331   -0.7200
      7 C7         -1.6301    2.3166   49.2694 C.2     1  ZINC000174621331    0.5600
      8 O8         -1.2559    2.9384   48.2943 O.2     1  ZINC000174621331   -0.5300
      9 C9         -2.7250    2.8473   50.1091 C.ar    1  ZINC000174621331   -0.1600
     10 C10        -2.6351    4.1311   50.6489 C.ar    1  ZINC000174621331   -0.0200
     11 C11        -3.6607    4.6206   51.4314 C.ar    1  ZINC000174621331   -0.1100
     12 C12        -3.5654    6.0067   52.0151 C.3     1  ZINC000174621331   -0.1200
     13 C13        -4.7766    3.8420   51.6809 C.ar    1  ZINC000174621331    0.0400
     14 C14        -5.8933    4.3833   52.5360 C.3     1  ZINC000174621331   -0.1600
     15 C15        -4.8723    2.5683   51.1483 C.ar    1  ZINC000174621331   -0.6800
     16 S16        -6.2983    1.5851   51.4718 S.o2    1  ZINC000174621331    2.7000
     17 N17        -6.2732    1.2001   53.0822 N.am    1  ZINC000174621331   -1.2500
     18 O18        -7.4223    2.4328   51.2793 O.2     1  ZINC000174621331   -0.9500
     19 O19        -6.1139    0.3663   50.7649 O.2     1  ZINC000174621331   -0.9600
     20 C20        -3.8560    2.0687   50.3608 C.ar    1  ZINC000174621331    0.0400
     21 C21         1.3523    1.1827   49.2218 C.2     1  ZINC000174621331   -0.0200
     22 C22         2.4017    1.4892   48.4381 C.2     1  ZINC000174621331   -0.1900
     23 C23         3.4160    1.9869   49.2880 C.2     1  ZINC000174621331   -0.2100
     24 C24         2.9258    1.9548   50.5402 C.2     1  ZINC000174621331    0.0000
     25 C25         3.6555    2.3929   51.7839 C.3     1  ZINC000174621331   -0.0800
     26 O26         1.6733    1.4722   50.4934 O.3     1  ZINC000174621331   -0.1600
     27 H27        -1.3533   -0.0636   46.7857 H       1  ZINC000174621331    0.0400
     28 H28        -0.4686   -1.5425   46.3402 H       1  ZINC000174621331    0.0400
     29 H29        -2.2342   -1.5939   46.5603 H       1  ZINC000174621331    0.0900
     30 H30         0.1390   -1.1960   49.9116 H       1  ZINC000174621331    0.0700
     31 H31         0.9352   -1.2938   48.3226 H       1  ZINC000174621331    0.0700
     32 H32        -1.3446    0.6477   50.3639 H       1  ZINC000174621331    0.4100
     33 H33        -1.7645    4.7400   50.4549 H       1  ZINC000174621331    0.1400
     34 H34        -3.9979    6.7249   51.3185 H       1  ZINC000174621331    0.0800
     35 H35        -4.1104    6.0420   52.9585 H       1  ZINC000174621331    0.0800
     36 H36        -2.5188    6.2558   52.1906 H       1  ZINC000174621331    0.0700
     37 H37        -6.6176    4.8980   51.9046 H       1  ZINC000174621331    0.1100
     38 H38        -6.3841    3.5607   53.0561 H       1  ZINC000174621331    0.0700
     39 H39        -5.4855    5.0829   53.2657 H       1  ZINC000174621331    0.0900
     40 H40        -6.9821    0.6581   53.4624 H       1  ZINC000174621331    0.4200
     41 H41        -5.5496    1.5166   53.6453 H       1  ZINC000174621331    0.4200
     42 H42        -3.9321    1.0746   49.9454 H       1  ZINC000174621331    0.1600
     43 H43         2.4587    1.3761   47.3656 H       1  ZINC000174621331    0.1500
     44 H44         4.3965    2.3272   48.9892 H       1  ZINC000174621331    0.1500
     45 H45         3.4637    3.4505   51.9641 H       1  ZINC000174621331    0.0800
     46 H46         3.3049    1.8097   52.6353 H       1  ZINC000174621331    0.0800
     47 H47         4.7260    2.2351   51.6516 H       1  ZINC000174621331    0.0900
@<TRIPOS>BOND
     1     1     2    1
     2     1    27    1
     3     1    28    1
     4     1    29    1
     5     2     3    1
     6     3     4    1
     7     3    30    1
     8     3    31    1
     9     4     5    1
    10     4     6    1
    11     4    21    1
    12     6     7   am
    13     6    32    1
    14     7     8    2
    15     7     9    1
    16     9    20   ar
    17     9    10   ar
    18    10    11   ar
    19    10    33    1
    20    11    12    1
    21    11    13   ar
    22    12    34    1
    23    12    35    1
    24    12    36    1
    25    13    14    1
    26    13    15   ar
    27    14    37    1
    28    14    38    1
    29    14    39    1
    30    15    16    1
    31    15    20   ar
    32    16    17   am
    33    16    18    2
    34    16    19    2
    35    17    40    1
    36    17    41    1
    37    20    42    1
    38    21    26    1
    39    21    22    2
    40    22    23    1
    41    22    43    1
    42    23    24    2
    43    23    44    1
    44    24    25    1
    45    24    26    1
    46    25    45    1
    47    25    46    1
    48    25    47    1
@<TRIPOS>SUBSTRUCTURE
     1 ZINC000174621331        1 TEMP              0 ****  ****    0 ROOT


##########                                Name:    ZINC001296589646
##########                DOCK_Rotatable_Bonds:                   8
##########                         Heavy_Atoms:                  29
##########                    Molecular_Weight:             398.548
##########                DOCK_Rotatable_Bonds:                   8
##########                       Formal_Charge:          -0.0200008
##########                     HBond_Acceptors:                   6
##########                        HBond_Donors:                   0
##########                         Heavy_Atoms:                  29
##########                          Grid_Score:          -31.897429
##########                     Grid_vdw_energy:          -30.868580
##########                      Grid_es_energy:           -1.028849
##########           Internal_energy_repulsive:           30.737488

@<TRIPOS>MOLECULE
ZINC001296589646
 63 66 1 0 0
SMALL
USER_CHARGES


@<TRIPOS>ATOM
      1 C1         -0.6155   -1.4458   48.2774 C.3     1  ZINC001296589646   -0.1500
      2 C2         -1.1485   -0.1627   48.9183 C.3     1  ZINC001296589646    0.0500
      3 O3         -0.3431    0.9444   48.5088 O.3     1  ZINC001296589646   -0.3600
      4 C4         -1.0751    1.9885   47.8637 C.3     1  ZINC001296589646    0.1800
      5 C5         -2.2524    2.4126   48.7034 C.2     1  ZINC001296589646    0.1500
      6 N6         -3.5079    2.3498   48.3606 N.2     1  ZINC001296589646   -0.2600
      7 N7         -4.2476    2.7933   49.3136 N.2     1  ZINC001296589646   -0.3200
      8 C8         -3.4975    3.1658   50.3237 C.2     1  ZINC001296589646    0.3600
      9 N9         -3.9386    3.6944   51.5265 N.3     1  ZINC001296589646   -0.4300
     10 C10        -4.6448    4.9837   51.3143 C.3     1  ZINC001296589646    0.0300
     11 C11        -5.4898    5.1414   52.6033 C.3     1  ZINC001296589646   -0.1200
     12 C12        -5.9402    3.6927   52.9010 C.3     1  ZINC001296589646   -0.1000
     13 H13        -6.9433    3.5208   52.5111 H       1  ZINC001296589646    0.0800
     14 C14        -5.9031    3.4238   54.4067 C.3     1  ZINC001296589646   -0.1400
     15 C15        -4.9221    2.7971   52.1708 C.3     1  ZINC001296589646    0.0500
     16 N16        -2.2015    2.9292   49.9684 N.pl3   1  ZINC001296589646   -0.4600
     17 C17        -1.0033    3.1848   50.7717 C.3     1  ZINC001296589646    0.1000
     18 C18        -0.7649    4.6932   50.8661 C.3     1  ZINC001296589646   -0.1300
     19 C19         0.4558    4.9623   51.7485 C.3     1  ZINC001296589646   -0.0500
     20 H20         0.7309    6.0144   51.6769 H       1  ZINC001296589646    0.0800
     21 C21         0.1201    4.6205   53.2015 C.3     1  ZINC001296589646   -0.1500
     22 C22         1.6083    4.1091   51.2850 C.ar    1  ZINC001296589646   -0.0800
     23 C23         2.5163    4.6110   50.3714 C.ar    1  ZINC001296589646   -0.1100
     24 C24         3.5735    3.8284   49.9464 C.ar    1  ZINC001296589646   -0.1200
     25 C25         3.7230    2.5440   50.4351 C.ar    1  ZINC001296589646   -0.1200
     26 C26         2.8156    2.0424   51.3493 C.ar    1  ZINC001296589646   -0.1200
     27 C27         1.7608    2.8266   51.7777 C.ar    1  ZINC001296589646   -0.1200
     28 C28        -1.5316    1.5489   46.4458 C.3     1  ZINC001296589646   -0.1400
     29 C29        -0.2624    1.8679   45.6161 C.3     1  ZINC001296589646    0.0600
     30 O30         0.2706    3.0705   46.1933 O.3     1  ZINC001296589646   -0.3700
     31 C31        -0.1588    3.1918   47.5545 C.3     1  ZINC001296589646    0.0400
     32 H32        -0.7332   -1.3875   47.1954 H       1  ZINC001296589646    0.0600
     33 H33         0.4401   -1.5629   48.5224 H       1  ZINC001296589646    0.0700
     34 H34        -1.1739   -2.3011   48.6580 H       1  ZINC001296589646    0.0700
     35 H35        -2.1787    0.0007   48.6018 H       1  ZINC001296589646    0.0500
     36 H36        -1.1125   -0.2565   50.0036 H       1  ZINC001296589646    0.0600
     37 H37        -3.9312    5.8022   51.2195 H       1  ZINC001296589646    0.0900
     38 H38        -5.2887    4.9297   50.4365 H       1  ZINC001296589646    0.0600
     39 H39        -4.8805    5.5312   53.4187 H       1  ZINC001296589646    0.0800
     40 H40        -6.3518    5.7840   52.4233 H       1  ZINC001296589646    0.0800
     41 H41        -6.5926    4.0992   54.9134 H       1  ZINC001296589646    0.0600
     42 H42        -6.1979    2.3923   54.5989 H       1  ZINC001296589646    0.0600
     43 H43        -4.8925    3.5887   54.7805 H       1  ZINC001296589646    0.0600
     44 H44        -5.4297    2.1983   51.4145 H       1  ZINC001296589646    0.0800
     45 H45        -4.4188    2.1472   52.8865 H       1  ZINC001296589646    0.0900
     46 H46        -1.1426    2.7756   51.7723 H       1  ZINC001296589646    0.1100
     47 H47        -0.1424    2.7096   50.3014 H       1  ZINC001296589646    0.1000
     48 H48        -0.5883    5.0962   49.8689 H       1  ZINC001296589646    0.0800
     49 H49        -1.6413    5.1729   51.3020 H       1  ZINC001296589646    0.0700
     50 H50         0.9897    4.8120   53.8301 H       1  ZINC001296589646    0.0600
     51 H51        -0.7135    5.2375   53.5366 H       1  ZINC001296589646    0.0600
     52 H52        -0.1551    3.5682   53.2730 H       1  ZINC001296589646    0.0600
     53 H53         2.3995    5.6146   49.9896 H       1  ZINC001296589646    0.1200
     54 H54         4.2825    4.2204   49.2321 H       1  ZINC001296589646    0.1200
     55 H55         4.5486    1.9324   50.1024 H       1  ZINC001296589646    0.1200
     56 H56         2.9322    1.0388   51.7309 H       1  ZINC001296589646    0.1200
     57 H57         1.0518    2.4346   52.4919 H       1  ZINC001296589646    0.1200
     58 H58        -1.7605    0.4835   46.4195 H       1  ZINC001296589646    0.1000
     59 H59        -2.3819    2.1400   46.1060 H       1  ZINC001296589646    0.1000
     60 H60         0.4593    1.0554   45.7012 H       1  ZINC001296589646    0.0700
     61 H61        -0.5252    2.0338   44.5715 H       1  ZINC001296589646    0.0900
     62 H62        -0.7123    4.1215   47.6861 H       1  ZINC001296589646    0.1000
     63 H63         0.7062    3.1780   48.2176 H       1  ZINC001296589646    0.0800
@<TRIPOS>BOND
     1     1     2    1
     2     1    32    1
     3     1    33    1
     4     1    34    1
     5     2     3    1
     6     2    35    1
     7     2    36    1
     8     3     4    1
     9     4    31    1
    10     4     5    1
    11     4    28    1
    12     5    16    1
    13     5     6    2
    14     6     7    1
    15     7     8    2
    16     8     9    1
    17     8    16    1
    18     9    15    1
    19     9    10    1
    20    10    11    1
    21    10    37    1
    22    10    38    1
    23    11    12    1
    24    11    39    1
    25    11    40    1
    26    12    13    1
    27    12    14    1
    28    12    15    1
    29    14    41    1
    30    14    42    1
    31    14    43    1
    32    15    44    1
    33    15    45    1
    34    16    17    1
    35    17    18    1
    36    17    46    1
    37    17    47    1
    38    18    19    1
    39    18    48    1
    40    18    49    1
    41    19    20    1
    42    19    21    1
    43    19    22    1
    44    21    50    1
    45    21    51    1
    46    21    52    1
    47    22    27   ar
    48    22    23   ar
    49    23    24   ar
    50    23    53    1
    51    24    25   ar
    52    24    54    1
    53    25    26   ar
    54    25    55    1
    55    26    27   ar
    56    26    56    1
    57    27    57    1
    58    28    29    1
    59    28    58    1
    60    28    59    1
    61    29    30    1
    62    29    60    1
    63    29    61    1
    64    30    31    1
    65    31    62    1
    66    31    63    1
@<TRIPOS>SUBSTRUCTURE
     1 ZINC001296589646        1 TEMP              0 ****  ****    0 ROOT


##########                                Name:    ZINC001191386213
##########                DOCK_Rotatable_Bonds:                   6
##########                         Heavy_Atoms:                  29
##########                    Molecular_Weight:             392.433
##########                DOCK_Rotatable_Bonds:                   6
##########                       Formal_Charge:               -0.02
##########                     HBond_Acceptors:                   7
##########                        HBond_Donors:                   2
##########                         Heavy_Atoms:                  29
##########                          Grid_Score:          -31.880667
##########                     Grid_vdw_energy:          -31.566889
##########                      Grid_es_energy:           -0.313778
##########           Internal_energy_repulsive:           21.016699

@<TRIPOS>MOLECULE
ZINC001191386213
 50 53 1 0 0
SMALL
USER_CHARGES


@<TRIPOS>ATOM
      1 C1        -10.7111    3.8321   49.6471 C.3     1  ZINC001191386213   -0.1700
      2 C2         -9.3166    3.9838   50.1981 C.2     1  ZINC001191386213    0.5100
      3 O3         -8.4389    4.4541   49.5058 O.2     1  ZINC001191386213   -0.5200
      4 N4         -9.0450    3.5968   51.4602 N.am    1  ZINC001191386213   -0.6800
      5 C5         -7.7501    3.7376   51.9719 C.ar    1  ZINC001191386213    0.1400
      6 C6         -7.5511    4.3621   53.1967 C.ar    1  ZINC001191386213   -0.1400
      7 C7         -6.2737    4.5025   53.7053 C.ar    1  ZINC001191386213   -0.1000
      8 C8         -5.1886    4.0233   52.9990 C.ar    1  ZINC001191386213   -0.1100
      9 C9         -5.3791    3.3958   51.7692 C.ar    1  ZINC001191386213    0.0100
     10 C10        -4.2133    2.8800   51.0086 C.2     1  ZINC001191386213    0.0700
     11 N11        -4.2468    1.9757   50.0526 N.2     1  ZINC001191386213   -0.2500
     12 N12        -3.0676    1.7494   49.5974 N.pl3   1  ZINC001191386213   -0.3800
     13 C13        -2.1575    2.5259   50.2582 C.2     1  ZINC001191386213   -0.0400
     14 C14        -0.7034    2.5641   50.0333 C.2     1  ZINC001191386213    0.6100
     15 O15         0.0432    2.8921   50.9357 O.2     1  ZINC001191386213   -0.5100
     16 N16        -0.1992    2.2356   48.8273 N.am    1  ZINC001191386213   -0.6200
     17 C17         1.2261    2.2306   48.4670 C.3     1  ZINC001191386213    0.0800
     18 C18         1.3224    1.8157   46.9836 C.3     1  ZINC001191386213   -0.1200
     19 C19        -0.0878    2.1585   46.4348 C.3     1  ZINC001191386213   -0.0600
     20 H20        -0.1605    3.2150   46.1769 H       1  ZINC001191386213    0.1000
     21 C21        -0.4322    1.2917   45.2512 C.ar    1  ZINC001191386213   -0.1100
     22 C22        -1.6474    0.6355   45.2053 C.ar    1  ZINC001191386213   -0.0900
     23 C23        -1.9635   -0.1600   44.1195 C.ar    1  ZINC001191386213   -0.1300
     24 C24        -1.0646   -0.3002   43.0789 C.ar    1  ZINC001191386213   -0.0900
     25 C25         0.1518    0.3549   43.1229 C.ar    1  ZINC001191386213   -0.1500
     26 C26         0.4667    1.1568   44.2064 C.ar    1  ZINC001191386213    0.1100
     27 F27         1.6553    1.7975   44.2505 F       1  ZINC001191386213   -0.1400
     28 C28        -0.9851    1.8155   47.6529 C.3     1  ZINC001191386213    0.1200
     29 C29        -2.8728    3.2734   51.1742 C.2     1  ZINC001191386213   -0.1300
     30 C30        -6.6656    3.2485   51.2591 C.ar    1  ZINC001191386213   -0.1000
     31 H31       -10.7374    4.1960   48.6199 H       1  ZINC001191386213    0.1000
     32 H32       -10.9974    2.7806   49.6675 H       1  ZINC001191386213    0.0900
     33 H33       -11.4069    4.4100   50.2552 H       1  ZINC001191386213    0.0900
     34 H34        -9.7471    3.2207   52.0139 H       1  ZINC001191386213    0.4100
     35 H35        -8.3967    4.7393   53.7527 H       1  ZINC001191386213    0.1300
     36 H36        -6.1238    4.9888   54.6580 H       1  ZINC001191386213    0.1300
     37 H37        -4.1918    4.1351   53.3993 H       1  ZINC001191386213    0.1300
     38 H38        -2.8543    1.1205   48.8904 H       1  ZINC001191386213    0.4400
     39 H39         1.6459    3.2276   48.6010 H       1  ZINC001191386213    0.0700
     40 H40         1.7631    1.5135   49.0880 H       1  ZINC001191386213    0.0800
     41 H41         2.0879    2.3968   46.4695 H       1  ZINC001191386213    0.0900
     42 H42         1.5220    0.7479   46.8941 H       1  ZINC001191386213    0.0900
     43 H43        -2.3503    0.7438   46.0181 H       1  ZINC001191386213    0.1300
     44 H44        -2.9136   -0.6724   44.0844 H       1  ZINC001191386213    0.1300
     45 H45        -1.3125   -0.9221   42.2315 H       1  ZINC001191386213    0.1300
     46 H46         0.8543    0.2446   42.3101 H       1  ZINC001191386213    0.1400
     47 H47        -1.1853    0.7446   47.6871 H       1  ZINC001191386213    0.0800
     48 H48        -1.9191    2.3755   47.6057 H       1  ZINC001191386213    0.0900
     49 H49        -2.4847    3.9997   51.8730 H       1  ZINC001191386213    0.1700
     50 H50        -6.8180    2.7629   50.3065 H       1  ZINC001191386213    0.1500
@<TRIPOS>BOND
     1     1     2    1
     2     1    31    1
     3     1    32    1
     4     1    33    1
     5     2     3    2
     6     2     4   am
     7     4     5    1
     8     4    34    1
     9     5    30   ar
    10     5     6   ar
    11     6     7   ar
    12     6    35    1
    13     7     8   ar
    14     7    36    1
    15     8     9   ar
    16     8    37    1
    17     9    10    1
    18     9    30   ar
    19    10    29    1
    20    10    11    2
    21    11    12    1
    22    12    13    1
    23    12    38    1
    24    13    14    1
    25    13    29    2
    26    14    15    2
    27    14    16   am
    28    16    28    1
    29    16    17    1
    30    17    18    1
    31    17    39    1
    32    17    40    1
    33    18    19    1
    34    18    41    1
    35    18    42    1
    36    19    20    1
    37    19    21    1
    38    19    28    1
    39    21    26   ar
    40    21    22   ar
    41    22    23   ar
    42    22    43    1
    43    23    24   ar
    44    23    44    1
    45    24    25   ar
    46    24    45    1
    47    25    26   ar
    48    25    46    1
    49    26    27    1
    50    28    47    1
    51    28    48    1
    52    29    49    1
    53    30    50    1
@<TRIPOS>SUBSTRUCTURE
     1 ZINC001191386213        1 TEMP              0 ****  ****    0 ROOT


##########                                Name:    ZINC000848949366
##########                DOCK_Rotatable_Bonds:                   8
##########                         Heavy_Atoms:                  25
##########                    Molecular_Weight:             368.773
##########                DOCK_Rotatable_Bonds:                   8
##########                       Formal_Charge:          0.00999947
##########                     HBond_Acceptors:                   9
##########                        HBond_Donors:                   3
##########                         Heavy_Atoms:                  25
##########                          Grid_Score:          -31.860966
##########                     Grid_vdw_energy:          -31.710066
##########                      Grid_es_energy:           -0.150899
##########           Internal_energy_repulsive:           13.778780

@<TRIPOS>MOLECULE
ZINC000848949366
 42 43 1 0 0
SMALL
USER_CHARGES


@<TRIPOS>ATOM
      1 C1         -6.7336   -0.5952   51.2266 C.3     1  ZINC000848949366   -0.1500
      2 C2         -6.3910    0.8710   51.4988 C.3     1  ZINC000848949366    0.0600
      3 O3         -5.0748    1.1498   51.0173 O.3     1  ZINC000848949366   -0.3500
      4 C4         -4.9183    2.2641   50.2723 C.2     1  ZINC000848949366    0.5400
      5 O5         -5.7121    2.5200   49.3863 O.2     1  ZINC000848949366   -0.4800
      6 C6         -3.8314    3.1345   50.5212 C.2     1  ZINC000848949366   -0.2300
      7 C7         -2.6224    2.9202   49.9591 C.2     1  ZINC000848949366    0.2000
      8 C8         -2.4271    1.7337   49.0507 C.3     1  ZINC000848949366    0.1000
      9 O9         -2.9306    2.0502   47.7260 O.3     1  ZINC000848949366   -0.3500
     10 C10        -2.1513    1.7145   46.6791 C.2     1  ZINC000848949366    0.5100
     11 O11        -2.5763    1.8226   45.5458 O.2     1  ZINC000848949366   -0.4800
     12 C12        -0.7837    1.2164   46.9086 C.ar    1  ZINC000848949366   -0.1600
     13 C13        -0.5592   -0.1459   47.1257 C.ar    1  ZINC000848949366   -0.0300
     14 C14         0.7216   -0.6055   47.3397 C.ar    1  ZINC000848949366   -0.1300
     15 C15         1.7906    0.2778   47.3411 C.ar    1  ZINC000848949366    0.0200
     16 Cl16        3.3995   -0.3150   47.6127 Cl      1  ZINC000848949366   -0.0500
     17 C17         1.5825    1.6276   47.1272 C.ar    1  ZINC000848949366   -0.1500
     18 C18         0.3008    2.1061   46.9046 C.ar    1  ZINC000848949366    0.1900
     19 O19         0.0949    3.4302   46.6945 O.3     1  ZINC000848949366   -0.4700
     20 N20        -1.5741    3.7616   50.1998 N.am    1  ZINC000848949366   -0.6400
     21 C21        -1.6532    4.8389   50.9911 C.2     1  ZINC000848949366    0.7100
     22 O22        -0.6645    5.5291   51.1450 O.2     1  ZINC000848949366   -0.5600
     23 N23        -2.7933    5.1831   51.6221 N.am    1  ZINC000848949366   -0.7100
     24 C24        -3.9858    4.3425   51.4228 C.3     1  ZINC000848949366    0.2000
     25 H25        -4.7776    4.9732   51.0186 H       1  ZINC000848949366    0.0900
     26 C26        -4.4428    3.8395   52.7936 C.3     1  ZINC000848949366   -0.1700
     27 H27        -7.7376   -0.8079   51.5938 H       1  ZINC000848949366    0.0800
     28 H28        -6.6910   -0.7851   50.1541 H       1  ZINC000848949366    0.0700
     29 H29        -6.0161   -1.2369   51.7381 H       1  ZINC000848949366    0.0700
     30 H30        -7.1085    1.5127   50.9873 H       1  ZINC000848949366    0.0700
     31 H31        -6.4335    1.0610   52.5713 H       1  ZINC000848949366    0.0700
     32 H32        -1.3654    1.4948   48.9883 H       1  ZINC000848949366    0.1100
     33 H33        -2.9694    0.8769   49.4504 H       1  ZINC000848949366    0.1000
     34 H34        -1.3889   -0.8373   47.1262 H       1  ZINC000848949366    0.1500
     35 H35         0.8939   -1.6584   47.5074 H       1  ZINC000848949366    0.1500
     36 H36         2.4199    2.3096   47.1297 H       1  ZINC000848949366    0.1500
     37 H37        -0.8288    3.6631   46.5279 H       1  ZINC000848949366    0.4000
     38 H38        -0.7244    3.5678   49.7740 H       1  ZINC000848949366    0.4300
     39 H39        -2.8282    5.9677   52.1913 H       1  ZINC000848949366    0.4400
     40 H40        -4.6836    4.6902   53.4310 H       1  ZINC000848949366    0.0700
     41 H41        -5.3267    3.2129   52.6745 H       1  ZINC000848949366    0.0700
     42 H42        -3.6435    3.2569   53.2518 H       1  ZINC000848949366    0.0700
@<TRIPOS>BOND
     1     1     2    1
     2     1    27    1
     3     1    28    1
     4     1    29    1
     5     2     3    1
     6     2    30    1
     7     2    31    1
     8     3     4    1
     9     4     5    2
    10     4     6    1
    11     6    24    1
    12     6     7    2
    13     7     8    1
    14     7    20    1
    15     8     9    1
    16     8    32    1
    17     8    33    1
    18     9    10    1
    19    10    11    2
    20    10    12    1
    21    12    18   ar
    22    12    13   ar
    23    13    14   ar
    24    13    34    1
    25    14    15   ar
    26    14    35    1
    27    15    16    1
    28    15    17   ar
    29    17    18   ar
    30    17    36    1
    31    18    19    1
    32    19    37    1
    33    20    21   am
    34    20    38    1
    35    21    22    2
    36    21    23   am
    37    23    24    1
    38    23    39    1
    39    24    25    1
    40    24    26    1
    41    26    40    1
    42    26    41    1
    43    26    42    1
@<TRIPOS>SUBSTRUCTURE
     1 ZINC000848949366        1 TEMP              0 ****  ****    0 ROOT


##########                                Name:    ZINC000482187991
##########                DOCK_Rotatable_Bonds:                  11
##########                         Heavy_Atoms:                  29
##########                    Molecular_Weight:             407.414
##########                DOCK_Rotatable_Bonds:                  11
##########                       Formal_Charge:           0.0299996
##########                     HBond_Acceptors:                   8
##########                        HBond_Donors:                   1
##########                         Heavy_Atoms:                  29
##########                          Grid_Score:          -31.855310
##########                     Grid_vdw_energy:          -32.794910
##########                      Grid_es_energy:            0.939601
##########           Internal_energy_repulsive:           61.222633

@<TRIPOS>MOLECULE
ZINC000482187991
 52 53 1 0 0
SMALL
USER_CHARGES


@<TRIPOS>ATOM
      1 C1         -2.0736    0.1126   43.5044 C.3     1  ZINC000482187991    0.0200
      2 O2         -0.7256    0.5848   43.5511 O.3     1  ZINC000482187991   -0.3000
      3 C3         -0.1629    0.7251   44.7813 C.ar    1  ZINC000482187991    0.1400
      4 C4         -0.7347    0.1068   45.8760 C.ar    1  ZINC000482187991   -0.1700
      5 C5         -0.1544    0.2516   47.1418 C.ar    1  ZINC000482187991   -0.1000
      6 C6         -0.7591   -0.4046   48.3082 C.2     1  ZINC000482187991    0.4000
      7 O7         -0.8381   -1.6144   48.3503 O.2     1  ZINC000482187991   -0.4500
      8 C8         -1.2813    0.4248   49.4530 C.3     1  ZINC000482187991   -0.1500
      9 C9         -1.8408    1.7429   48.9141 C.3     1  ZINC000482187991   -0.1300
     10 C10        -2.5134    2.4975   50.0318 C.2     1  ZINC000482187991    0.5200
     11 O11        -1.8890    3.3169   50.6719 O.2     1  ZINC000482187991   -0.5200
     12 N12        -3.8085    2.2616   50.3203 N.am    1  ZINC000482187991   -0.7200
     13 C13        -4.4619    2.9940   51.4081 C.3     1  ZINC000482187991    0.1500
     14 H14        -3.7216    3.2606   52.1624 H       1  ZINC000482187991    0.1300
     15 C15        -5.5239    2.1253   52.0315 C.ar    1  ZINC000482187991   -0.1100
     16 C16        -6.1667    1.1664   51.2712 C.ar    1  ZINC000482187991   -0.1000
     17 C17        -7.1409    0.3697   51.8430 C.ar    1  ZINC000482187991   -0.1200
     18 C18        -7.4720    0.5316   53.1753 C.ar    1  ZINC000482187991   -0.1100
     19 C19        -6.8286    1.4899   53.9359 C.ar    1  ZINC000482187991   -0.1200
     20 C20        -5.8513    2.2838   53.3651 C.ar    1  ZINC000482187991   -0.1000
     21 C21        -5.1049    4.2662   50.8523 C.3     1  ZINC000482187991    0.2500
     22 F22        -5.7867    4.9302   51.8776 F       1  ZINC000482187991   -0.1900
     23 F23        -4.1108    5.1034   50.3347 F       1  ZINC000482187991   -0.2000
     24 C24         1.0042    1.0231   47.2930 C.ar    1  ZINC000482187991   -0.1900
     25 C25         1.5702    1.6385   46.1936 C.ar    1  ZINC000482187991    0.1400
     26 O26         2.6958    2.3878   46.3393 O.3     1  ZINC000482187991   -0.3000
     27 C27         2.6704    3.4090   47.3385 C.3     1  ZINC000482187991    0.0200
     28 C28         0.9929    1.4878   44.9346 C.ar    1  ZINC000482187991    0.0600
     29 O29         1.5527    2.0941   43.8557 O.3     1  ZINC000482187991   -0.3100
     30 C30         2.7331    2.8661   44.0853 C.3     1  ZINC000482187991    0.0400
     31 H31        -2.3997    0.0464   42.4664 H       1  ZINC000482187991    0.1100
     32 H32        -2.1295   -0.8732   43.9663 H       1  ZINC000482187991    0.0600
     33 H33        -2.7198    0.8043   44.0449 H       1  ZINC000482187991    0.0600
     34 H34        -1.6285   -0.4873   45.7556 H       1  ZINC000482187991    0.1500
     35 H35        -2.0716   -0.1222   49.9671 H       1  ZINC000482187991    0.1100
     36 H36        -0.4701    0.6326   50.1507 H       1  ZINC000482187991    0.1100
     37 H37        -1.0271    2.3440   48.5080 H       1  ZINC000482187991    0.1000
     38 H38        -2.5665    1.5352   48.1278 H       1  ZINC000482187991    0.1000
     39 H39        -4.3083    1.6071   49.8076 H       1  ZINC000482187991    0.4100
     40 H40        -5.9080    1.0399   50.2302 H       1  ZINC000482187991    0.1200
     41 H41        -7.6436   -0.3791   51.2488 H       1  ZINC000482187991    0.1300
     42 H42        -8.2336   -0.0904   53.6219 H       1  ZINC000482187991    0.1300
     43 H43        -7.0876    1.6167   54.9767 H       1  ZINC000482187991    0.1300
     44 H44        -5.3487    3.0324   53.9594 H       1  ZINC000482187991    0.1300
     45 H45        -5.8064    4.0027   50.0606 H       1  ZINC000482187991    0.1200
     46 H46         1.4543    1.1373   48.2680 H       1  ZINC000482187991    0.1500
     47 H47         1.8737    4.1181   47.1134 H       1  ZINC000482187991    0.0600
     48 H48         2.4905    2.9581   48.3145 H       1  ZINC000482187991    0.0600
     49 H49         3.6278    3.9300   47.3499 H       1  ZINC000482187991    0.1100
     50 H50         2.5116    3.6679   44.7896 H       1  ZINC000482187991    0.0500
     51 H51         3.5121    2.2249   44.4979 H       1  ZINC000482187991    0.0500
     52 H52         3.0761    3.2943   43.1434 H       1  ZINC000482187991    0.1000
@<TRIPOS>BOND
     1     1     2    1
     2     1    31    1
     3     1    32    1
     4     1    33    1
     5     2     3    1
     6     3    28   ar
     7     3     4   ar
     8     4     5   ar
     9     4    34    1
    10     5     6    1
    11     5    24   ar
    12     6     7    2
    13     6     8    1
    14     8     9    1
    15     8    35    1
    16     8    36    1
    17     9    10    1
    18     9    37    1
    19     9    38    1
    20    10    11    2
    21    10    12   am
    22    12    13    1
    23    12    39    1
    24    13    14    1
    25    13    15    1
    26    13    21    1
    27    15    20   ar
    28    15    16   ar
    29    16    17   ar
    30    16    40    1
    31    17    18   ar
    32    17    41    1
    33    18    19   ar
    34    18    42    1
    35    19    20   ar
    36    19    43    1
    37    20    44    1
    38    21    22    1
    39    21    23    1
    40    21    45    1
    41    24    25   ar
    42    24    46    1
    43    25    26    1
    44    25    28   ar
    45    26    27    1
    46    27    47    1
    47    27    48    1
    48    27    49    1
    49    28    29    1
    50    29    30    1
    51    30    50    1
    52    30    51    1
    53    30    52    1
@<TRIPOS>SUBSTRUCTURE
     1 ZINC000482187991        1 TEMP              0 ****  ****    0 ROOT


##########                                Name:    ZINC000098105561
##########                DOCK_Rotatable_Bonds:                   5
##########                         Heavy_Atoms:                  25
##########                    Molecular_Weight:             368.336
##########                DOCK_Rotatable_Bonds:                   5
##########                       Formal_Charge:         2.98023e-08
##########                     HBond_Acceptors:                   9
##########                        HBond_Donors:                   0
##########                         Heavy_Atoms:                  25
##########                          Grid_Score:          -31.854660
##########                     Grid_vdw_energy:          -30.182117
##########                      Grid_es_energy:           -1.672543
##########           Internal_energy_repulsive:           12.194796

@<TRIPOS>MOLECULE
ZINC000098105561
 36 38 1 0 0
SMALL
USER_CHARGES


@<TRIPOS>ATOM
      1 C1         -5.4554    2.2792   49.7429 C.3     1  ZINC000098105561   -0.0800
      2 C2         -3.9522    2.3113   49.6415 C.2     1  ZINC000098105561    0.0900
      3 C3         -3.1753    2.8257   50.5976 C.2     1  ZINC000098105561   -0.2700
      4 S4         -1.4978    2.6635   50.0844 S.3     1  ZINC000098105561    0.1600
      5 C5         -2.0038    1.9185   48.6312 C.2     1  ZINC000098105561    0.2500
      6 N6         -1.1536    1.4698   47.6300 N.am    1  ZINC000098105561   -0.5200
      7 C7         -0.0221    0.6016   47.9644 C.3     1  ZINC000098105561    0.0500
      8 C8         -0.4975   -0.8509   48.0361 C.3     1  ZINC000098105561    0.4400
      9 F9         -1.1232   -1.1967   46.8335 F       1  ZINC000098105561   -0.1700
     10 F10         0.6007   -1.6911   48.2488 F       1  ZINC000098105561   -0.1700
     11 F11        -1.4048   -0.9931   49.0915 F       1  ZINC000098105561   -0.1700
     12 C12        -1.3691    1.8330   46.3500 C.2     1  ZINC000098105561    0.5800
     13 O13        -2.3076    2.5533   46.0726 O.2     1  ZINC000098105561   -0.4100
     14 C14        -0.4619    1.3543   45.2816 C.2     1  ZINC000098105561    0.0800
     15 C15         0.7761    1.8995   45.1884 C.2     1  ZINC000098105561   -0.2000
     16 C16         1.6651    1.4290   44.1126 C.2     1  ZINC000098105561    0.4200
     17 O17         2.8537    1.6965   44.0940 O.2     1  ZINC000098105561   -0.4300
     18 C18         1.0300    0.6133   43.0579 C.ar    1  ZINC000098105561   -0.2200
     19 C19         1.6895    0.3232   41.8655 C.ar    1  ZINC000098105561   -0.0300
     20 C20         1.0553   -0.4368   40.9069 C.ar    1  ZINC000098105561   -0.1400
     21 C21        -0.2308   -0.9087   41.1278 C.ar    1  ZINC000098105561   -0.0500
     22 C22        -0.8925   -0.6302   42.3042 C.ar    1  ZINC000098105561   -0.1400
     23 C23        -0.2709    0.1319   43.2879 C.ar    1  ZINC000098105561    0.1400
     24 O24        -0.8973    0.3969   44.4514 O.3     1  ZINC000098105561   -0.2300
     25 N25        -3.2971    1.8284   48.6030 N.2     1  ZINC000098105561   -0.4600
     26 H26        -5.7673    1.3531   50.2258 H       1  ZINC000098105561    0.0800
     27 H27        -5.7981    3.1296   50.3324 H       1  ZINC000098105561    0.0800
     28 H28        -5.8882    2.3315   48.7439 H       1  ZINC000098105561    0.0800
     29 H29        -3.5158    3.2649   51.5236 H       1  ZINC000098105561    0.1900
     30 H30         0.7466    0.6948   47.1972 H       1  ZINC000098105561    0.1700
     31 H31         0.3899    0.8971   48.9293 H       1  ZINC000098105561    0.1400
     32 H32         1.1015    2.6586   45.8842 H       1  ZINC000098105561    0.1800
     33 H33         2.6901    0.6916   41.6935 H       1  ZINC000098105561    0.1400
     34 H34         1.5609   -0.6658   39.9803 H       1  ZINC000098105561    0.1400
     35 H35        -0.7194   -1.5010   40.3684 H       1  ZINC000098105561    0.1400
     36 H36        -1.8933   -1.0039   42.4626 H       1  ZINC000098105561    0.1400
@<TRIPOS>BOND
     1     1     2    1
     2     1    26    1
     3     1    27    1
     4     1    28    1
     5     2    25    1
     6     2     3    2
     7     3     4    1
     8     3    29    1
     9     4     5    1
    10     5     6    1
    11     5    25    2
    12     6     7    1
    13     6    12   am
    14     7     8    1
    15     7    30    1
    16     7    31    1
    17     8     9    1
    18     8    10    1
    19     8    11    1
    20    12    13    2
    21    12    14    1
    22    14    24    1
    23    14    15    2
    24    15    16    1
    25    15    32    1
    26    16    17    2
    27    16    18    1
    28    18    23   ar
    29    18    19   ar
    30    19    20   ar
    31    19    33    1
    32    20    21   ar
    33    20    34    1
    34    21    22   ar
    35    21    35    1
    36    22    23   ar
    37    22    36    1
    38    23    24    1
@<TRIPOS>SUBSTRUCTURE
     1 ZINC000098105561        1 TEMP              0 ****  ****    0 ROOT


##########                                Name:    ZINC001312809190
##########                DOCK_Rotatable_Bonds:                   6
##########                         Heavy_Atoms:                  29
##########                    Molecular_Weight:             395.501
##########                DOCK_Rotatable_Bonds:                   6
##########                       Formal_Charge:           0.0199995
##########                     HBond_Acceptors:                   6
##########                        HBond_Donors:                   1
##########                         Heavy_Atoms:                  29
##########                          Grid_Score:          -31.830515
##########                     Grid_vdw_energy:          -32.093822
##########                      Grid_es_energy:            0.263307
##########           Internal_energy_repulsive:           32.374458

@<TRIPOS>MOLECULE
ZINC001312809190
 58 61 1 0 0
SMALL
USER_CHARGES


@<TRIPOS>ATOM
      1 C1        -12.1148    2.6865   50.3399 C.3     1  ZINC001312809190    0.0300
      2 O2        -12.9167    1.7955   51.1177 O.3     1  ZINC001312809190   -0.3200
      3 C3        -12.2973    1.1308   52.1283 C.ar    1  ZINC001312809190    0.1300
      4 C4        -13.0043    0.2155   52.8940 C.ar    1  ZINC001312809190   -0.2100
      5 C5        -12.3720   -0.4593   53.9205 C.ar    1  ZINC001312809190   -0.0800
      6 C6        -11.0360   -0.2225   54.1853 C.ar    1  ZINC001312809190   -0.1300
      7 C7        -10.3290    0.6899   53.4236 C.ar    1  ZINC001312809190   -0.0500
      8 C8         -8.8728    0.9460   53.7152 C.3     1  ZINC001312809190    0.1200
      9 H9         -8.4252    0.0498   54.1449 H       1  ZINC001312809190    0.0500
     10 C10        -8.7472    2.1044   54.7067 C.3     1  ZINC001312809190   -0.1400
     11 N11        -8.1770    1.2911   52.4682 N.3     1  ZINC001312809190   -0.5300
     12 C12        -6.8934    0.5839   52.3686 C.3     1  ZINC001312809190    0.0300
     13 C13        -6.2863    0.8268   50.9827 C.3     1  ZINC001312809190    0.1400
     14 N14        -6.2168    2.2775   50.7509 N.am    1  ZINC001312809190   -0.6300
     15 C15        -5.0686    2.8602   50.3524 C.2     1  ZINC001312809190    0.7100
     16 O16        -5.0292    4.0609   50.1655 O.2     1  ZINC001312809190   -0.5800
     17 N17        -3.9642    2.1117   50.1612 N.am    1  ZINC001312809190   -0.7300
     18 C18        -2.7162    2.7451   49.7280 C.3     1  ZINC001312809190    0.1800
     19 H19        -2.9129    3.5290   48.9967 H       1  ZINC001312809190    0.1200
     20 C20        -1.9455    3.2914   50.9142 C.ar    1  ZINC001312809190   -0.1900
     21 C21        -2.3325    4.0423   52.0017 C.ar    1  ZINC001312809190   -0.0500
     22 C22        -1.4010    4.4032   52.9594 C.ar    1  ZINC001312809190   -0.1500
     23 C23        -0.0838    4.0074   52.8195 C.ar    1  ZINC001312809190   -0.0800
     24 C24         0.3067    3.2581   51.7287 C.ar    1  ZINC001312809190   -0.1400
     25 C25        -0.6236    2.8936   50.7589 C.ar    1  ZINC001312809190    0.1100
     26 O26        -0.4544    2.1831   49.6101 O.3     1  ZINC001312809190   -0.2900
     27 C27        -1.7311    1.6952   49.1617 C.3     1  ZINC001312809190    0.0800
     28 H28        -1.9359    0.7093   49.5789 H       1  ZINC001312809190    0.0900
     29 C29        -1.7905    1.6576   47.6334 C.3     1  ZINC001312809190   -0.1500
     30 C30        -7.4336    3.0755   50.9649 C.3     1  ZINC001312809190    0.1200
     31 C31        -7.9955    2.7441   52.3514 C.3     1  ZINC001312809190    0.0400
     32 C32       -10.9549    1.3625   52.3923 C.ar    1  ZINC001312809190   -0.1500
     33 H33       -12.7305    3.1507   49.5695 H       1  ZINC001312809190    0.1000
     34 H34       -11.6984    3.4589   50.9866 H       1  ZINC001312809190    0.0600
     35 H35       -11.3040    2.1297   49.8704 H       1  ZINC001312809190    0.0600
     36 H36       -14.0482    0.0307   52.6882 H       1  ZINC001312809190    0.1300
     37 H37       -12.9221   -1.1721   54.5170 H       1  ZINC001312809190    0.1300
     38 H38       -10.5436   -0.7507   54.9883 H       1  ZINC001312809190    0.1300
     39 H39        -9.1948    3.0007   54.2769 H       1  ZINC001312809190    0.0700
     40 H40        -9.2635    1.8485   55.6319 H       1  ZINC001312809190    0.0600
     41 H41        -7.6939    2.2897   54.9175 H       1  ZINC001312809190    0.0600
     42 H42        -6.2126    0.9563   53.1343 H       1  ZINC001312809190    0.0400
     43 H43        -7.0544   -0.4844   52.5131 H       1  ZINC001312809190    0.1000
     44 H44        -5.2837    0.4011   50.9424 H       1  ZINC001312809190    0.1000
     45 H45        -6.9145    0.3639   50.2217 H       1  ZINC001312809190    0.0700
     46 H46        -3.9956    1.1538   50.3105 H       1  ZINC001312809190    0.4000
     47 H47        -3.3624    4.3497   52.1070 H       1  ZINC001312809190    0.1200
     48 H48        -1.7019    4.9923   53.8131 H       1  ZINC001312809190    0.1300
     49 H49         0.6433    4.2865   53.5675 H       1  ZINC001312809190    0.1300
     50 H50         1.3378    2.9534   51.6267 H       1  ZINC001312809190    0.1300
     51 H51        -1.0261    0.9781   47.2565 H       1  ZINC001312809190    0.0800
     52 H52        -2.7738    1.3101   47.3164 H       1  ZINC001312809190    0.0800
     53 H53        -1.6140    2.6581   47.2381 H       1  ZINC001312809190    0.0700
     54 H54        -7.1895    4.1365   50.9127 H       1  ZINC001312809190    0.0800
     55 H55        -8.1721    2.8288   50.2020 H       1  ZINC001312809190    0.0800
     56 H56        -8.9559    3.2425   52.4833 H       1  ZINC001312809190    0.0900
     57 H57        -7.2994    3.0864   53.1172 H       1  ZINC001312809190    0.0400
     58 H58       -10.4023    2.0747   51.7976 H       1  ZINC001312809190    0.1300
@<TRIPOS>BOND
     1     1     2    1
     2     1    33    1
     3     1    34    1
     4     1    35    1
     5     2     3    1
     6     3    32   ar
     7     3     4   ar
     8     4     5   ar
     9     4    36    1
    10     5     6   ar
    11     5    37    1
    12     6     7   ar
    13     6    38    1
    14     7     8    1
    15     7    32   ar
    16     8     9    1
    17     8    10    1
    18     8    11    1
    19    10    39    1
    20    10    40    1
    21    10    41    1
    22    11    31    1
    23    11    12    1
    24    12    13    1
    25    12    42    1
    26    12    43    1
    27    13    14    1
    28    13    44    1
    29    13    45    1
    30    14    15   am
    31    14    30    1
    32    15    16    2
    33    15    17   am
    34    17    18    1
    35    17    46    1
    36    18    19    1
    37    18    27    1
    38    18    20    1
    39    20    25   ar
    40    20    21   ar
    41    21    22   ar
    42    21    47    1
    43    22    23   ar
    44    22    48    1
    45    23    24   ar
    46    23    49    1
    47    24    25   ar
    48    24    50    1
    49    25    26    1
    50    26    27    1
    51    27    28    1
    52    27    29    1
    53    29    51    1
    54    29    52    1
    55    29    53    1
    56    30    31    1
    57    30    54    1
    58    30    55    1
    59    31    56    1
    60    31    57    1
    61    32    58    1
@<TRIPOS>SUBSTRUCTURE
     1 ZINC001312809190        1 TEMP              0 ****  ****    0 ROOT


##########                                Name:    ZINC000416583757
##########                DOCK_Rotatable_Bonds:                   7
##########                         Heavy_Atoms:                  20
##########                    Molecular_Weight:             380.693
##########                DOCK_Rotatable_Bonds:                   7
##########                       Formal_Charge:         1.04308e-07
##########                     HBond_Acceptors:                   7
##########                        HBond_Donors:                   1
##########                         Heavy_Atoms:                  20
##########                          Grid_Score:          -31.817703
##########                     Grid_vdw_energy:          -30.759792
##########                      Grid_es_energy:           -1.057910
##########           Internal_energy_repulsive:            6.191129

@<TRIPOS>MOLECULE
ZINC000416583757
 35 35 1 0 0
SMALL
USER_CHARGES


@<TRIPOS>ATOM
      1 C1         -6.2723    3.5922   52.2335 C.3     1  ZINC000416583757   -0.1500
      2 C2         -6.6711    2.2167   51.6953 C.3     1  ZINC000416583757   -0.0200
      3 H3         -7.6981    2.2525   51.3318 H       1  ZINC000416583757    0.1200
      4 C4         -5.7725    1.8425   50.5910 C.1     1  ZINC000416583757    0.2100
      5 N5         -5.0792    1.5537   49.7388 N.1     1  ZINC000416583757   -0.4200
      6 C6         -6.5623    1.1797   52.8150 C.3     1  ZINC000416583757    0.1300
      7 N7         -7.3751    0.0088   52.4766 N.am    1  ZINC000416583757   -1.0100
      8 C8         -6.7925   -1.0873   51.6985 C.3     1  ZINC000416583757    0.0800
      9 S9         -8.9526   -0.0758   52.9734 S.o2    1  ZINC000416583757    2.7800
     10 O10        -9.5799    1.1169   52.5222 O.2     1  ZINC000416583757   -0.9700
     11 O11        -9.4131   -1.3748   52.6277 O.2     1  ZINC000416583757   -0.9700
     12 N12        -8.9499   -0.0055   54.6280 N.am    1  ZINC000416583757   -1.1300
     13 C13       -10.2146   -0.0589   55.3654 C.3     1  ZINC000416583757    0.1600
     14 C14       -10.0374   -0.8948   56.6067 C.ar    1  ZINC000416583757   -0.0800
     15 C15       -10.6238   -2.1436   56.6880 C.ar    1  ZINC000416583757   -0.0800
     16 C16       -10.4609   -2.9117   57.8275 C.ar    1  ZINC000416583757   -0.0300
     17 Cl17      -11.1970   -4.4807   57.9294 Cl      1  ZINC000416583757   -0.0500
     18 C18        -9.7112   -2.4294   58.8849 C.ar    1  ZINC000416583757   -0.0700
     19 C19        -9.1245   -1.1794   58.8029 C.ar    1  ZINC000416583757   -0.0800
     20 Br20       -8.0993   -0.5192   60.2481 Br      1  ZINC000416583757   -0.0300
     21 C21        -9.2836   -0.4147   57.6614 C.ar    1  ZINC000416583757   -0.0700
     22 H22        -6.2319    4.3064   51.4111 H       1  ZINC000416583757    0.0700
     23 H23        -7.0083    3.9230   52.9662 H       1  ZINC000416583757    0.0800
     24 H24        -5.2924    3.5271   52.7066 H       1  ZINC000416583757    0.0700
     25 H25        -5.5213    0.8781   52.9310 H       1  ZINC000416583757    0.0900
     26 H26        -6.9211    1.6137   53.7482 H       1  ZINC000416583757    0.1000
     27 H27        -6.3494   -1.8178   52.3753 H       1  ZINC000416583757    0.0700
     28 H28        -7.5718   -1.5667   51.1060 H       1  ZINC000416583757    0.0800
     29 H29        -6.0228   -0.6929   51.0351 H       1  ZINC000416583757    0.0800
     30 H30        -8.1110    0.0710   55.1088 H       1  ZINC000416583757    0.4200
     31 H31       -10.5140    0.9507   55.6469 H       1  ZINC000416583757    0.0800
     32 H32       -10.9845   -0.5036   54.7348 H       1  ZINC000416583757    0.1000
     33 H33       -11.2094   -2.5199   55.8624 H       1  ZINC000416583757    0.1500
     34 H34        -9.5840   -3.0283   59.7746 H       1  ZINC000416583757    0.1500
     35 H35        -8.8256    0.5614   57.5973 H       1  ZINC000416583757    0.1400
@<TRIPOS>BOND
     1     1     2    1
     2     1    22    1
     3     1    23    1
     4     1    24    1
     5     2     3    1
     6     2     4    1
     7     2     6    1
     8     4     5    3
     9     6     7    1
    10     6    25    1
    11     6    26    1
    12     7     8    1
    13     7     9   am
    14     8    27    1
    15     8    28    1
    16     8    29    1
    17     9    10    2
    18     9    11    2
    19     9    12   am
    20    12    13    1
    21    12    30    1
    22    13    14    1
    23    13    31    1
    24    13    32    1
    25    14    21   ar
    26    14    15   ar
    27    15    16   ar
    28    15    33    1
    29    16    17    1
    30    16    18   ar
    31    18    19   ar
    32    18    34    1
    33    19    20    1
    34    19    21   ar
    35    21    35    1
@<TRIPOS>SUBSTRUCTURE
     1 ZINC000416583757        1 TEMP              0 ****  ****    0 ROOT


##########                                Name:    ZINC000963156778
##########                DOCK_Rotatable_Bonds:                   6
##########                         Heavy_Atoms:                  24
##########                    Molecular_Weight:             349.414
##########                DOCK_Rotatable_Bonds:                   6
##########                       Formal_Charge:         -0.00999984
##########                     HBond_Acceptors:                   9
##########                        HBond_Donors:                   2
##########                         Heavy_Atoms:                  24
##########                          Grid_Score:          -31.810629
##########                     Grid_vdw_energy:          -31.024731
##########                      Grid_es_energy:           -0.785899
##########           Internal_energy_repulsive:            7.937281

@<TRIPOS>MOLECULE
ZINC000963156778
 43 46 1 0 0
SMALL
USER_CHARGES


@<TRIPOS>ATOM
      1 C1        -14.7165   -5.3347   56.9757 C.3     1  ZINC000963156778   -0.0800
      2 C2        -15.0688   -3.9743   57.5203 C.2     1  ZINC000963156778    0.0300
      3 C3        -14.1553   -3.0142   57.7947 C.2     1  ZINC000963156778   -0.2600
      4 C4        -12.6594   -3.0837   57.6260 C.3     1  ZINC000963156778    0.1300
      5 N5        -12.2964   -2.6212   56.2798 N.3     1  ZINC000963156778   -0.5000
      6 C6        -10.8212   -2.5441   56.1231 C.3     1  ZINC000963156778    0.0600
      7 C7        -10.6057   -1.5753   54.9407 C.3     1  ZINC000963156778   -0.1700
      8 H8        -10.1507   -1.9768   54.0352 H       1  ZINC000963156778    0.1200
      9 C9        -11.8818   -0.7100   54.8938 C.3     1  ZINC000963156778   -0.1700
     10 H10       -12.3688   -0.4555   53.9524 H       1  ZINC000963156778    0.1200
     11 C11       -12.7609   -1.2287   56.0520 C.3     1  ZINC000963156778    0.0600
     12 C12       -10.4868   -0.0806   55.2452 C.3     1  ZINC000963156778    0.1200
     13 H13       -10.3149    0.2135   56.2805 H       1  ZINC000963156778    0.1400
     14 N14        -9.8567    0.7718   54.2340 N.am    1  ZINC000963156778   -0.7000
     15 C15        -8.5251    0.9784   54.2616 C.2     1  ZINC000963156778    0.5100
     16 O16        -7.8485    0.4575   55.1228 O.2     1  ZINC000963156778   -0.5000
     17 C17        -7.8772    1.8567   53.2225 C.3     1  ZINC000963156778   -0.1300
     18 C18        -6.5778    1.2064   52.7435 C.3     1  ZINC000963156778   -0.1100
     19 H19        -5.9806    0.8742   53.5928 H       1  ZINC000963156778    0.1300
     20 C20        -5.7731    2.1850   51.8639 C.3     1  ZINC000963156778   -0.1600
     21 C21        -5.6977    1.4802   50.5271 C.2     1  ZINC000963156778    0.5300
     22 O22        -5.1440    1.9089   49.5375 O.2     1  ZINC000963156778   -0.4800
     23 N23        -6.3390    0.3079   50.6104 N.am    1  ZINC000963156778   -0.6900
     24 C24        -6.8724    0.0490   51.8146 C.2     1  ZINC000963156778    0.5200
     25 O25        -7.4923   -0.9507   52.1076 O.2     1  ZINC000963156778   -0.4500
     26 S26       -15.0937   -1.6952   58.3794 S.3     1  ZINC000963156778    0.4500
     27 N27       -16.4790   -2.4104   58.2419 N.2     1  ZINC000963156778   -0.2900
     28 N28       -16.3009   -3.5852   57.7774 N.2     1  ZINC000963156778   -0.2400
     29 H29       -14.7177   -5.3013   55.8862 H       1  ZINC000963156778    0.0900
     30 H30       -13.7264   -5.6224   57.3293 H       1  ZINC000963156778    0.0800
     31 H31       -15.4507   -6.0642   57.3176 H       1  ZINC000963156778    0.0800
     32 H32       -12.1798   -2.4479   58.3703 H       1  ZINC000963156778    0.1000
     33 H33       -12.3262   -4.1130   57.7587 H       1  ZINC000963156778    0.0700
     34 H34       -10.3629   -2.1465   57.0287 H       1  ZINC000963156778    0.0600
     35 H35       -10.4118   -3.5268   55.8888 H       1  ZINC000963156778    0.0800
     36 H36       -13.8122   -1.2210   55.7641 H       1  ZINC000963156778    0.1000
     37 H37       -12.6063   -0.6252   56.9464 H       1  ZINC000963156778    0.0500
     38 H38       -10.3978    1.1875   53.5446 H       1  ZINC000963156778    0.4000
     39 H39        -8.5546    1.9803   52.3776 H       1  ZINC000963156778    0.1000
     40 H40        -7.6568    2.8318   53.6572 H       1  ZINC000963156778    0.1200
     41 H41        -6.2987    3.1350   51.7675 H       1  ZINC000963156778    0.1200
     42 H42        -4.7748    2.3375   52.2741 H       1  ZINC000963156778    0.1300
     43 H43        -6.4112   -0.3052   49.8622 H       1  ZINC000963156778    0.4200
@<TRIPOS>BOND
     1     1     2    1
     2     1    29    1
     3     1    30    1
     4     1    31    1
     5     2    28    1
     6     2     3    2
     7     3     4    1
     8     3    26    1
     9     4     5    1
    10     4    32    1
    11     4    33    1
    12     5    11    1
    13     5     6    1
    14     6     7    1
    15     6    34    1
    16     6    35    1
    17     7     8    1
    18     7    12    1
    19     7     9    1
    20     9    10    1
    21     9    11    1
    22     9    12    1
    23    11    36    1
    24    11    37    1
    25    12    13    1
    26    12    14    1
    27    14    15   am
    28    14    38    1
    29    15    16    2
    30    15    17    1
    31    17    18    1
    32    17    39    1
    33    17    40    1
    34    18    19    1
    35    18    24    1
    36    18    20    1
    37    20    21    1
    38    20    41    1
    39    20    42    1
    40    21    22    2
    41    21    23   am
    42    23    24   am
    43    23    43    1
    44    24    25    2
    45    26    27    1
    46    27    28    2
@<TRIPOS>SUBSTRUCTURE
     1 ZINC000963156778        1 TEMP              0 ****  ****    0 ROOT


##########                                Name:    ZINC000989658617
##########                DOCK_Rotatable_Bonds:                   6
##########                         Heavy_Atoms:                  24
##########                    Molecular_Weight:             334.418
##########                DOCK_Rotatable_Bonds:                   6
##########                       Formal_Charge:          -0.0100001
##########                     HBond_Acceptors:                   7
##########                        HBond_Donors:                   2
##########                         Heavy_Atoms:                  24
##########                          Grid_Score:          -31.798769
##########                     Grid_vdw_energy:          -30.474068
##########                      Grid_es_energy:           -1.324701
##########           Internal_energy_repulsive:            8.436962

@<TRIPOS>MOLECULE
ZINC000989658617
 50 52 1 0 0
SMALL
USER_CHARGES


@<TRIPOS>ATOM
      1 C1          2.9409   -0.0105   41.3774 C.3     1  ZINC000989658617    0.0300
      2 O2          2.8365   -0.0214   42.8026 O.3     1  ZINC000989658617   -0.3700
      3 C3          1.7453    0.7482   43.3114 C.3     1  ZINC000989658617    0.0500
      4 C4          1.7320    0.6673   44.8161 C.2     1  ZINC000989658617    0.5300
      5 O5          2.7594    0.4436   45.4204 O.2     1  ZINC000989658617   -0.5100
      6 N6          0.5784    0.8435   45.4903 N.am    1  ZINC000989658617   -0.6200
      7 C7         -0.7369    1.1207   44.8848 C.3     1  ZINC000989658617    0.1000
      8 C8         -1.5449    1.8309   45.9994 C.3     1  ZINC000989658617   -0.1500
      9 C9         -1.0610    1.0747   47.2649 C.3     1  ZINC000989658617    0.1400
     10 H10        -1.6136    0.1439   47.3927 H       1  ZINC000989658617    0.1100
     11 N11        -1.1904    1.9196   48.4547 N.am    1  ZINC000989658617   -0.7100
     12 C12        -2.3986    2.1025   49.0232 C.2     1  ZINC000989658617    0.6100
     13 O13        -3.3813    1.5677   48.5477 O.2     1  ZINC000989658617   -0.5200
     14 C14        -2.5288    2.9529   50.2238 C.2     1  ZINC000989658617   -0.0100
     15 N15        -1.6050    3.7525   50.7293 N.2     1  ZINC000989658617   -0.2600
     16 N16        -2.0575    4.3450   51.7801 N.pl3   1  ZINC000989658617   -0.3700
     17 C17        -3.3213    3.9578   52.0186 C.2     1  ZINC000989658617    0.0100
     18 C18        -3.6603    3.0743   51.0477 C.2     1  ZINC000989658617   -0.1400
     19 C19        -4.9957    2.3905   50.9431 C.3     1  ZINC000989658617   -0.0400
     20 C20        -5.7174    2.5349   52.2899 C.3     1  ZINC000989658617   -0.0900
     21 H21        -5.2207    1.9150   53.0363 H       1  ZINC000989658617    0.0700
     22 C22        -7.1719    2.0850   52.1396 C.3     1  ZINC000989658617   -0.1500
     23 C23        -5.6799    3.9991   52.7357 C.3     1  ZINC000989658617   -0.1100
     24 C24        -4.2491    4.3855   53.1266 C.3     1  ZINC000989658617   -0.0500
     25 C25         0.4219    0.7848   46.9510 C.3     1  ZINC000989658617    0.1300
     26 H26         1.0542    1.5405   47.4172 H       1  ZINC000989658617    0.0800
     27 C27         0.8018   -0.6035   47.4699 C.3     1  ZINC000989658617   -0.1600
     28 H28         2.0287   -0.4197   40.9431 H       1  ZINC000989658617    0.0500
     29 H29         3.0805    1.0136   41.0311 H       1  ZINC000989658617    0.0400
     30 H30         3.7931   -0.6170   41.0708 H       1  ZINC000989658617    0.0900
     31 H31         1.8596    1.7878   43.0044 H       1  ZINC000989658617    0.0800
     32 H32         0.8082    0.3541   42.9180 H       1  ZINC000989658617    0.0800
     33 H33        -0.6263    1.7756   44.0205 H       1  ZINC000989658617    0.0800
     34 H34        -1.2256    0.1900   44.5965 H       1  ZINC000989658617    0.0800
     35 H35        -1.2880    2.8889   46.0544 H       1  ZINC000989658617    0.0800
     36 H36        -2.6164    1.6979   45.8505 H       1  ZINC000989658617    0.1000
     37 H37        -0.4065    2.3474   48.8334 H       1  ZINC000989658617    0.4100
     38 H38        -1.5586    4.9780   52.3197 H       1  ZINC000989658617    0.4500
     39 H39        -5.5877    2.8590   50.1569 H       1  ZINC000989658617    0.0800
     40 H40        -4.8510    1.3346   50.7151 H       1  ZINC000989658617    0.0800
     41 H41        -7.1989    1.0424   51.8228 H       1  ZINC000989658617    0.0600
     42 H42        -7.6847    2.1875   53.0960 H       1  ZINC000989658617    0.0600
     43 H43        -7.6687    2.7046   51.3929 H       1  ZINC000989658617    0.0600
     44 H44        -6.0138    4.6364   51.9170 H       1  ZINC000989658617    0.0700
     45 H45        -6.3400    4.1345   53.5926 H       1  ZINC000989658617    0.0800
     46 H46        -3.9704    3.8768   54.0493 H       1  ZINC000989658617    0.0800
     47 H47        -4.1857    5.4645   53.2678 H       1  ZINC000989658617    0.0800
     48 H48         0.1781   -1.3554   46.9863 H       1  ZINC000989658617    0.0600
     49 H49         1.8498   -0.8013   47.2448 H       1  ZINC000989658617    0.0700
     50 H50         0.6481   -0.6429   48.5483 H       1  ZINC000989658617    0.0700
@<TRIPOS>BOND
     1     1     2    1
     2     1    28    1
     3     1    29    1
     4     1    30    1
     5     2     3    1
     6     3     4    1
     7     3    31    1
     8     3    32    1
     9     4     5    2
    10     4     6   am
    11     6    25    1
    12     6     7    1
    13     7     8    1
    14     7    33    1
    15     7    34    1
    16     8     9    1
    17     8    35    1
    18     8    36    1
    19     9    10    1
    20     9    11    1
    21     9    25    1
    22    11    12   am
    23    11    37    1
    24    12    13    2
    25    12    14    1
    26    14    18    1
    27    14    15    2
    28    15    16    1
    29    16    17    1
    30    16    38    1
    31    17    24    1
    32    17    18    2
    33    18    19    1
    34    19    20    1
    35    19    39    1
    36    19    40    1
    37    20    21    1
    38    20    22    1
    39    20    23    1
    40    22    41    1
    41    22    42    1
    42    22    43    1
    43    23    24    1
    44    23    44    1
    45    23    45    1
    46    24    46    1
    47    24    47    1
    48    25    26    1
    49    25    27    1
    50    27    48    1
    51    27    49    1
    52    27    50    1
@<TRIPOS>SUBSTRUCTURE
     1 ZINC000989658617        1 TEMP              0 ****  ****    0 ROOT


##########                                Name:    ZINC001058772245
##########                DOCK_Rotatable_Bonds:                  11
##########                         Heavy_Atoms:                  22
##########                    Molecular_Weight:             335.375
##########                DOCK_Rotatable_Bonds:                  11
##########                       Formal_Charge:          0.00999964
##########                     HBond_Acceptors:                   9
##########                        HBond_Donors:                   2
##########                         Heavy_Atoms:                  22
##########                          Grid_Score:          -31.797394
##########                     Grid_vdw_energy:          -30.906693
##########                      Grid_es_energy:           -0.890701
##########           Internal_energy_repulsive:           65.625587

@<TRIPOS>MOLECULE
ZINC001058772245
 41 41 1 0 0
SMALL
USER_CHARGES


@<TRIPOS>ATOM
      1 C1         -1.6920    2.2759   45.4270 C.3     1  ZINC001058772245   -0.1700
      2 C2         -0.3197    2.4019   46.0918 C.3     1  ZINC001058772245   -0.1400
      3 C3          0.4630    3.5400   45.4338 C.3     1  ZINC001058772245   -0.1500
      4 C4         -0.4975    2.6970   47.5588 C.2     1  ZINC001058772245    0.5300
      5 O5         -0.0801    3.7368   48.0231 O.2     1  ZINC001058772245   -0.5200
      6 N6         -1.1203    1.8055   48.3549 N.am    1  ZINC001058772245   -0.5900
      7 C7         -1.6246    0.5496   47.7941 C.3     1  ZINC001058772245    0.0800
      8 C8         -1.0505   -0.6284   48.5837 C.3     1  ZINC001058772245    0.0400
      9 O9         -0.5157   -1.5945   47.6767 O.3     1  ZINC001058772245   -0.5700
     10 C10        -1.2931    2.0924   49.7811 C.3     1  ZINC001058772245    0.1100
     11 C11        -2.6063    2.8480   49.9940 C.3     1  ZINC001058772245    0.1000
     12 N12        -3.6349    1.9168   50.4639 N.am    1  ZINC001058772245   -0.7100
     13 C13        -4.8798    2.3629   50.7240 C.2     1  ZINC001058772245    0.6000
     14 O14        -5.1498    3.5385   50.5672 O.2     1  ZINC001058772245   -0.5300
     15 C15        -5.9133    1.4271   51.1982 C.2     1  ZINC001058772245    0.0000
     16 C16        -6.8685    1.7711   52.0912 C.2     1  ZINC001058772245   -0.2200
     17 S17        -7.8687    0.4151   52.3792 S.3     1  ZINC001058772245    0.2300
     18 C18        -6.9546   -0.5325   51.2915 C.2     1  ZINC001058772245    0.0000
     19 N19        -5.9981    0.1608   50.7820 N.2     1  ZINC001058772245   -0.4400
     20 C20         0.4502    1.0904   45.9249 C.3     1  ZINC001058772245    0.2900
     21 F21        -0.2069    0.2792   44.9935 F       1  ZINC001058772245   -0.1900
     22 F22         1.7456    1.3642   45.4730 F       1  ZINC001058772245   -0.2000
     23 H23        -1.5832    1.7875   44.4587 H       1  ZINC001058772245    0.0800
     24 H24        -2.3499    1.6821   46.0615 H       1  ZINC001058772245    0.0700
     25 H25        -2.1206    3.2684   45.2872 H       1  ZINC001058772245    0.0900
     26 H26         0.0651    4.4971   45.7708 H       1  ZINC001058772245    0.0800
     27 H27         1.5145    3.4657   45.7114 H       1  ZINC001058772245    0.0700
     28 H28         0.3673    3.4680   44.3504 H       1  ZINC001058772245    0.0900
     29 H29        -2.7127    0.5342   47.8580 H       1  ZINC001058772245    0.0900
     30 H30        -1.3209    0.4701   46.7503 H       1  ZINC001058772245    0.1200
     31 H31        -0.2592   -0.2724   49.2435 H       1  ZINC001058772245    0.0600
     32 H32        -1.8407   -1.0867   49.1783 H       1  ZINC001058772245    0.0700
     33 H33         0.2192   -1.2662   47.1407 H       1  ZINC001058772245    0.3800
     34 H34        -1.3176    1.1568   50.3397 H       1  ZINC001058772245    0.1000
     35 H35        -0.4614    2.7034   50.1321 H       1  ZINC001058772245    0.0900
     36 H36        -2.4585    3.6314   50.7374 H       1  ZINC001058772245    0.0700
     37 H37        -2.9245    3.2959   49.0525 H       1  ZINC001058772245    0.0700
     38 H38        -3.4201    0.9790   50.5879 H       1  ZINC001058772245    0.4100
     39 H39        -6.9812    2.7434   52.5477 H       1  ZINC001058772245    0.1900
     40 H40        -7.1539   -1.5685   51.0609 H       1  ZINC001058772245    0.2100
     41 H41         0.5014    0.5746   46.8837 H       1  ZINC001058772245    0.1200
@<TRIPOS>BOND
     1     1     2    1
     2     1    23    1
     3     1    24    1
     4     1    25    1
     5     2     3    1
     6     2     4    1
     7     2    20    1
     8     3    26    1
     9     3    27    1
    10     3    28    1
    11     4     5    2
    12     4     6   am
    13     6     7    1
    14     6    10    1
    15     7     8    1
    16     7    29    1
    17     7    30    1
    18     8     9    1
    19     8    31    1
    20     8    32    1
    21     9    33    1
    22    10    11    1
    23    10    34    1
    24    10    35    1
    25    11    12    1
    26    11    36    1
    27    11    37    1
    28    12    13   am
    29    12    38    1
    30    13    14    2
    31    13    15    1
    32    15    19    1
    33    15    16    2
    34    16    17    1
    35    16    39    1
    36    17    18    1
    37    18    19    2
    38    18    40    1
    39    20    21    1
    40    20    22    1
    41    20    41    1
@<TRIPOS>SUBSTRUCTURE
     1 ZINC001058772245        1 TEMP              0 ****  ****    0 ROOT


##########                                Name:    ZINC000572148596
##########                DOCK_Rotatable_Bonds:                   4
##########                         Heavy_Atoms:                  26
##########                    Molecular_Weight:             371.463
##########                DOCK_Rotatable_Bonds:                   4
##########                       Formal_Charge:          -0.0199999
##########                     HBond_Acceptors:                   8
##########                        HBond_Donors:                   0
##########                         Heavy_Atoms:                  26
##########                          Grid_Score:          -31.796000
##########                     Grid_vdw_energy:          -31.209423
##########                      Grid_es_energy:           -0.586576
##########           Internal_energy_repulsive:            5.137423

@<TRIPOS>MOLECULE
ZINC000572148596
 47 50 1 0 0
SMALL
USER_CHARGES


@<TRIPOS>ATOM
      1 C1         -4.3437    4.2438   50.5892 C.3     1  ZINC000572148596   -0.1400
      2 C2         -3.9166    2.7953   50.8354 C.3     1  ZINC000572148596    0.0800
      3 H3         -3.2392    2.7562   51.6884 H       1  ZINC000572148596    0.1200
      4 C4         -5.1340    1.9544   51.1216 C.2     1  ZINC000572148596    0.1800
      5 N5         -5.7451    1.1761   50.2778 N.2     1  ZINC000572148596   -0.3500
      6 O6         -6.6910    0.6335   50.8086 O.3     1  ZINC000572148596    0.0900
      7 C7         -6.7782    1.0270   52.0889 C.2     1  ZINC000572148596    0.2300
      8 C8         -7.7880    0.5981   53.0766 C.ar    1  ZINC000572148596   -0.1200
      9 C9         -8.5181   -0.5832   52.8802 C.ar    1  ZINC000572148596   -0.0100
     10 C10        -9.4449   -0.9426   53.8223 C.ar    1  ZINC000572148596   -0.1900
     11 C11        -9.6344   -0.1317   54.9390 C.ar    1  ZINC000572148596    0.3400
     12 N12       -10.5714   -0.4928   55.8948 N.3     1  ZINC000572148596   -0.4700
     13 C13       -11.2704    0.6889   56.4202 C.3     1  ZINC000572148596    0.0300
     14 C14       -12.3342    0.2407   57.4259 C.3     1  ZINC000572148596    0.0900
     15 H15       -12.8162    1.1166   57.8605 H       1  ZINC000572148596    0.1100
     16 C16       -13.3813   -0.6179   56.7136 C.3     1  ZINC000572148596   -0.1800
     17 O17       -11.7118   -0.5248   58.4612 O.3     1  ZINC000572148596   -0.3700
     18 C18       -11.0222   -1.6837   57.9850 C.3     1  ZINC000572148596    0.0800
     19 H19       -11.7295   -2.3519   57.4939 H       1  ZINC000572148596    0.0700
     20 C20       -10.3677   -2.4086   59.1627 C.3     1  ZINC000572148596   -0.1400
     21 C21        -9.9451   -1.2550   56.9849 C.3     1  ZINC000572148596    0.0300
     22 N22        -8.9307    0.9802   55.1006 N.ar    1  ZINC000572148596   -0.5200
     23 C23        -8.0258    1.3590   54.2219 C.ar    1  ZINC000572148596    0.1900
     24 N24        -5.7797    1.8688   52.2948 N.2     1  ZINC000572148596   -0.4700
     25 C25        -3.2150    2.2636   49.6122 C.2     1  ZINC000572148596    0.0400
     26 N26        -3.5505    2.5282   48.3948 N.2     1  ZINC000572148596   -0.4500
     27 C27        -2.8277    1.9796   47.4394 C.2     1  ZINC000572148596    0.0400
     28 C28        -1.8263    1.2090   47.8752 C.2     1  ZINC000572148596   -0.2500
     29 S29        -1.8546    1.2282   49.6368 S.3     1  ZINC000572148596    0.1400
     30 H30        -5.0209    4.2828   49.7360 H       1  ZINC000572148596    0.0800
     31 H31        -4.8510    4.6283   51.4739 H       1  ZINC000572148596    0.0700
     32 H32        -3.4631    4.8520   50.3822 H       1  ZINC000572148596    0.0800
     33 H33        -8.3535   -1.1952   52.0058 H       1  ZINC000572148596    0.1500
     34 H34       -10.0238   -1.8461   53.7003 H       1  ZINC000572148596    0.1500
     35 H35       -10.5546    1.3450   56.9156 H       1  ZINC000572148596    0.0600
     36 H36       -11.7481    1.2240   55.5994 H       1  ZINC000572148596    0.1000
     37 H37       -12.8989   -1.4942   56.2806 H       1  ZINC000572148596    0.0700
     38 H38       -14.1383   -0.9366   57.4301 H       1  ZINC000572148596    0.0600
     39 H39       -13.8525   -0.0344   55.9225 H       1  ZINC000572148596    0.0700
     40 H40       -11.1350   -2.7102   59.8755 H       1  ZINC000572148596    0.0700
     41 H41        -9.8423   -3.2917   58.7991 H       1  ZINC000572148596    0.0700
     42 H42        -9.6593   -1.7404   59.6524 H       1  ZINC000572148596    0.0600
     43 H43        -9.4553   -2.1389   56.5764 H       1  ZINC000572148596    0.1000
     44 H44        -9.2082   -0.6300   57.4894 H       1  ZINC000572148596    0.0600
     45 H45        -7.4700    2.2707   54.3842 H       1  ZINC000572148596    0.1700
     46 H46        -3.0280    2.1391   46.3902 H       1  ZINC000572148596    0.1800
     47 H47        -1.1220    0.6725   47.2568 H       1  ZINC000572148596    0.1800
@<TRIPOS>BOND
     1     1     2    1
     2     1    30    1
     3     1    31    1
     4     1    32    1
     5     2     3    1
     6     2     4    1
     7     2    25    1
     8     4    24    1
     9     4     5    2
    10     5     6    1
    11     6     7    1
    12     7     8    1
    13     7    24    2
    14     8    23   ar
    15     8     9   ar
    16     9    10   ar
    17     9    33    1
    18    10    11   ar
    19    10    34    1
    20    11    12    1
    21    11    22   ar
    22    12    21    1
    23    12    13    1
    24    13    14    1
    25    13    35    1
    26    13    36    1
    27    14    15    1
    28    14    16    1
    29    14    17    1
    30    16    37    1
    31    16    38    1
    32    16    39    1
    33    17    18    1
    34    18    19    1
    35    18    20    1
    36    18    21    1
    37    20    40    1
    38    20    41    1
    39    20    42    1
    40    21    43    1
    41    21    44    1
    42    22    23   ar
    43    23    45    1
    44    25    29    1
    45    25    26    2
    46    26    27    1
    47    27    28    2
    48    27    46    1
    49    28    29    1
    50    28    47    1
@<TRIPOS>SUBSTRUCTURE
     1 ZINC000572148596        1 TEMP              0 ****  ****    0 ROOT


##########                                Name:    ZINC000171059239
##########                DOCK_Rotatable_Bonds:                   8
##########                         Heavy_Atoms:                  25
##########                    Molecular_Weight:              333.39
##########                DOCK_Rotatable_Bonds:                   8
##########                       Formal_Charge:         1.10269e-06
##########                     HBond_Acceptors:                   5
##########                        HBond_Donors:                   4
##########                         Heavy_Atoms:                  25
##########                          Grid_Score:          -31.791588
##########                     Grid_vdw_energy:          -30.432201
##########                      Grid_es_energy:           -1.359387
##########           Internal_energy_repulsive:           10.377382

@<TRIPOS>MOLECULE
ZINC000171059239
 44 46 1 0 0
SMALL
USER_CHARGES


@<TRIPOS>ATOM
      1 N1          3.4671    0.4079   41.4596 N.am    1  ZINC000171059239   -0.8500
      2 C2          3.1214    0.7979   42.7024 C.2     1  ZINC000171059239    0.5600
      3 O3          3.9513    1.3003   43.4347 O.2     1  ZINC000171059239   -0.5400
      4 C4          1.7325    0.6145   43.1752 C.ar    1  ZINC000171059239   -0.1400
      5 C5          0.7771    0.0384   42.3368 C.ar    1  ZINC000171059239   -0.0900
      6 C6         -0.5171   -0.1303   42.7843 C.ar    1  ZINC000171059239   -0.1200
      7 C7         -0.8685    0.2707   44.0608 C.ar    1  ZINC000171059239   -0.0800
      8 C8          0.0738    0.8431   44.8970 C.ar    1  ZINC000171059239   -0.0900
      9 C9         -0.3182    1.2772   46.2858 C.3     1  ZINC000171059239   -0.0900
     10 C10        -1.2316    0.2213   46.9115 C.3     1  ZINC000171059239    0.1400
     11 N11        -1.5122    0.5814   48.3036 N.am    1  ZINC000171059239   -0.7400
     12 C12        -2.5247    1.4233   48.5909 C.2     1  ZINC000171059239    0.7000
     13 O13        -3.2061    1.8828   47.6949 O.2     1  ZINC000171059239   -0.5700
     14 N14        -2.7818    1.7560   49.8715 N.am    1  ZINC000171059239   -0.6800
     15 C15        -3.8307    2.6281   50.1691 C.ar    1  ZINC000171059239    0.1700
     16 C16        -3.5698    3.8728   50.7805 C.ar    1  ZINC000171059239   -0.0600
     17 C17        -2.2615    4.2654   51.1036 C.ar    1  ZINC000171059239   -0.1100
     18 C18        -2.0466    5.4739   51.6929 C.ar    1  ZINC000171059239   -0.1100
     19 C19        -3.1079    6.3296   51.9815 C.ar    1  ZINC000171059239   -0.1200
     20 C20        -4.3893    5.9819   51.6823 C.ar    1  ZINC000171059239   -0.1000
     21 C21        -4.6496    4.7421   51.0731 C.ar    1  ZINC000171059239   -0.0400
     22 C22        -5.9597    4.3505   50.7497 C.ar    1  ZINC000171059239   -0.1200
     23 C23        -6.1826    3.1438   50.1596 C.ar    1  ZINC000171059239   -0.0900
     24 C24        -5.1296    2.2837   49.8631 C.ar    1  ZINC000171059239   -0.1200
     25 C25         1.3727    1.0116   44.4642 C.ar    1  ZINC000171059239   -0.0500
     26 H26         4.3780    0.5293   41.1489 H       1  ZINC000171059239    0.4100
     27 H27         2.8060    0.0023   40.8770 H       1  ZINC000171059239    0.4000
     28 H28         1.0502   -0.2743   41.3397 H       1  ZINC000171059239    0.1300
     29 H29        -1.2574   -0.5760   42.1365 H       1  ZINC000171059239    0.1300
     30 H30        -1.8830    0.1367   44.4062 H       1  ZINC000171059239    0.1300
     31 H31         0.5771    1.3915   46.8971 H       1  ZINC000171059239    0.0800
     32 H32        -0.8462    2.2294   46.2333 H       1  ZINC000171059239    0.0800
     33 H33        -2.1666    0.1729   46.3533 H       1  ZINC000171059239    0.0700
     34 H34        -0.7387   -0.7503   46.8798 H       1  ZINC000171059239    0.0700
     35 H35        -0.9693    0.2139   49.0186 H       1  ZINC000171059239    0.4000
     36 H36        -2.2382    1.3894   50.5863 H       1  ZINC000171059239    0.4100
     37 H37        -1.4295    3.6120   50.8863 H       1  ZINC000171059239    0.1200
     38 H38        -1.0389    5.7736   51.9404 H       1  ZINC000171059239    0.1200
     39 H39        -2.9107    7.2825   52.4499 H       1  ZINC000171059239    0.1200
     40 H40        -5.2021    6.6550   51.9122 H       1  ZINC000171059239    0.1300
     41 H41        -6.7894    5.0061   50.9694 H       1  ZINC000171059239    0.1300
     42 H42        -7.1928    2.8510   49.9145 H       1  ZINC000171059239    0.1300
     43 H43        -5.3332    1.3322   49.3946 H       1  ZINC000171059239    0.1400
     44 H44         2.1072    1.4582   45.1178 H       1  ZINC000171059239    0.1400
@<TRIPOS>BOND
     1     1     2   am
     2     1    26    1
     3     1    27    1
     4     2     3    2
     5     2     4    1
     6     4    25   ar
     7     4     5   ar
     8     5     6   ar
     9     5    28    1
    10     6     7   ar
    11     6    29    1
    12     7     8   ar
    13     7    30    1
    14     8     9    1
    15     8    25   ar
    16     9    10    1
    17     9    31    1
    18     9    32    1
    19    10    11    1
    20    10    33    1
    21    10    34    1
    22    11    12   am
    23    11    35    1
    24    12    13    2
    25    12    14   am
    26    14    15    1
    27    14    36    1
    28    15    24   ar
    29    15    16   ar
    30    16    21   ar
    31    16    17   ar
    32    17    18   ar
    33    17    37    1
    34    18    19   ar
    35    18    38    1
    36    19    20   ar
    37    19    39    1
    38    20    21   ar
    39    20    40    1
    40    21    22   ar
    41    22    23   ar
    42    22    41    1
    43    23    24   ar
    44    23    42    1
    45    24    43    1
    46    25    44    1
@<TRIPOS>SUBSTRUCTURE
     1 ZINC000171059239        1 TEMP              0 ****  ****    0 ROOT


##########                                Name:    ZINC001009984555
##########                DOCK_Rotatable_Bonds:                   7
##########                         Heavy_Atoms:                  23
##########                    Molecular_Weight:             338.446
##########                DOCK_Rotatable_Bonds:                   7
##########                       Formal_Charge:           0.0400002
##########                     HBond_Acceptors:                   6
##########                        HBond_Donors:                   1
##########                         Heavy_Atoms:                  23
##########                          Grid_Score:          -31.765030
##########                     Grid_vdw_energy:          -30.493164
##########                      Grid_es_energy:           -1.271865
##########           Internal_energy_repulsive:           17.573029

@<TRIPOS>MOLECULE
ZINC001009984555
 46 47 1 0 0
SMALL
USER_CHARGES


@<TRIPOS>ATOM
      1 C1         -9.2317    0.1052   53.8536 C.3     1  ZINC001009984555   -0.1400
      2 S2         -7.9935   -0.3577   52.6114 S.3     1  ZINC001009984555   -0.1800
      3 C3         -7.2071    1.2266   52.2091 C.3     1  ZINC001009984555   -0.1300
      4 C4         -6.1371    1.0071   51.1708 C.2     1  ZINC001009984555    0.5500
      5 O5         -6.2466    0.1039   50.3688 O.2     1  ZINC001009984555   -0.5100
      6 N6         -5.0584    1.8143   51.1336 N.am    1  ZINC001009984555   -0.6100
      7 C7         -3.9462    1.7180   50.1708 C.3     1  ZINC001009984555    0.1000
      8 C8         -3.3371    3.1416   50.1248 C.3     1  ZINC001009984555   -0.1100
      9 H9         -3.9165    3.7935   49.4711 H       1  ZINC001009984555    0.1000
     10 C10        -1.8708    3.0970   49.6904 C.3     1  ZINC001009984555    0.1300
     11 N11        -1.7531    2.3317   48.4466 N.am    1  ZINC001009984555   -0.7300
     12 C12        -0.8123    2.6608   47.5394 C.2     1  ZINC001009984555    0.5600
     13 O13        -0.0607    3.5917   47.7536 O.2     1  ZINC001009984555   -0.5200
     14 C14        -0.6946    1.8896   46.2834 C.ar    1  ZINC001009984555   -0.1200
     15 C15        -1.8273    1.6348   45.5090 C.ar    1  ZINC001009984555   -0.0900
     16 C16        -1.7121    0.9145   44.3378 C.ar    1  ZINC001009984555   -0.1000
     17 C17        -0.4774    0.4442   43.9296 C.ar    1  ZINC001009984555   -0.1200
     18 C18         0.6522    0.6930   44.6931 C.ar    1  ZINC001009984555    0.0900
     19 F19         1.8553    0.2305   44.2883 F       1  ZINC001009984555   -0.1300
     20 C20         0.5505    1.4184   45.8647 C.ar    1  ZINC001009984555   -0.0500
     21 C21         1.7788    1.6889   46.6947 C.3     1  ZINC001009984555   -0.1200
     22 C22        -3.4658    3.5834   51.6067 C.3     1  ZINC001009984555   -0.1200
     23 C23        -4.7993    2.9406   52.0422 C.3     1  ZINC001009984555    0.1400
     24 H24        -4.7172    2.5737   53.0654 H       1  ZINC001009984555    0.0800
     25 C25        -5.9280    3.9691   51.9476 C.3     1  ZINC001009984555   -0.1700
     26 H26        -9.9300    0.8215   53.4211 H       1  ZINC001009984555    0.0800
     27 H27        -9.7750   -0.7838   54.1739 H       1  ZINC001009984555    0.1100
     28 H28        -8.7341    0.5558   54.7123 H       1  ZINC001009984555    0.0800
     29 H29        -7.9563    1.9154   51.8186 H       1  ZINC001009984555    0.1100
     30 H30        -6.7592    1.6488   53.1086 H       1  ZINC001009984555    0.1100
     31 H31        -3.2044    0.9991   50.5188 H       1  ZINC001009984555    0.0800
     32 H32        -4.3194    1.4332   49.1871 H       1  ZINC001009984555    0.0800
     33 H33        -1.5089    4.1123   49.5278 H       1  ZINC001009984555    0.0800
     34 H34        -1.2756    2.6194   50.4686 H       1  ZINC001009984555    0.0800
     35 H35        -2.3521    1.5881   48.2762 H       1  ZINC001009984555    0.4000
     36 H36        -2.7928    2.0006   45.8263 H       1  ZINC001009984555    0.1300
     37 H37        -2.5887    0.7173   43.7384 H       1  ZINC001009984555    0.1400
     38 H38        -0.3930   -0.1197   43.0123 H       1  ZINC001009984555    0.1400
     39 H39         2.1677    2.6789   46.4562 H       1  ZINC001009984555    0.0800
     40 H40         1.5194    1.6457   47.7525 H       1  ZINC001009984555    0.1000
     41 H41         2.5379    0.9379   46.4759 H       1  ZINC001009984555    0.0600
     42 H42        -2.6357    3.1965   52.1978 H       1  ZINC001009984555    0.0900
     43 H43        -3.5210    4.6694   51.6819 H       1  ZINC001009984555    0.0900
     44 H44        -6.0162    4.3182   50.9187 H       1  ZINC001009984555    0.0600
     45 H45        -6.8662    3.5083   52.2566 H       1  ZINC001009984555    0.0700
     46 H46        -5.7058    4.8136   52.6000 H       1  ZINC001009984555    0.0700
@<TRIPOS>BOND
     1     1     2    1
     2     1    26    1
     3     1    27    1
     4     1    28    1
     5     2     3    1
     6     3     4    1
     7     3    29    1
     8     3    30    1
     9     4     5    2
    10     4     6   am
    11     6    23    1
    12     6     7    1
    13     7     8    1
    14     7    31    1
    15     7    32    1
    16     8     9    1
    17     8    10    1
    18     8    22    1
    19    10    11    1
    20    10    33    1
    21    10    34    1
    22    11    12   am
    23    11    35    1
    24    12    13    2
    25    12    14    1
    26    14    20   ar
    27    14    15   ar
    28    15    16   ar
    29    15    36    1
    30    16    17   ar
    31    16    37    1
    32    17    18   ar
    33    17    38    1
    34    18    19    1
    35    18    20   ar
    36    20    21    1
    37    21    39    1
    38    21    40    1
    39    21    41    1
    40    22    23    1
    41    22    42    1
    42    22    43    1
    43    23    24    1
    44    23    25    1
    45    25    44    1
    46    25    45    1
    47    25    46    1
@<TRIPOS>SUBSTRUCTURE
     1 ZINC001009984555        1 TEMP              0 ****  ****    0 ROOT


##########                                Name:    ZINC001053433946
##########                DOCK_Rotatable_Bonds:                   6
##########                         Heavy_Atoms:                  24
##########                    Molecular_Weight:             337.419
##########                DOCK_Rotatable_Bonds:                   6
##########                       Formal_Charge:               -0.02
##########                     HBond_Acceptors:                   7
##########                        HBond_Donors:                   2
##########                         Heavy_Atoms:                  24
##########                          Grid_Score:          -31.757582
##########                     Grid_vdw_energy:          -30.771999
##########                      Grid_es_energy:           -0.985583
##########           Internal_energy_repulsive:           18.901928

@<TRIPOS>MOLECULE
ZINC001053433946
 51 54 1 0 0
SMALL
USER_CHARGES


@<TRIPOS>ATOM
      1 N1         -1.6197   -1.0372   46.9620 N.am    1  ZINC001053433946   -0.8300
      2 C2         -1.6859   -0.9231   45.6207 C.2     1  ZINC001053433946    0.5600
      3 O3         -1.7629   -1.9173   44.9305 O.2     1  ZINC001053433946   -0.5500
      4 C4         -1.6642    0.4401   44.9785 C.3     1  ZINC001053433946   -0.1600
      5 H5         -2.6404    0.8684   44.7515 H       1  ZINC001053433946    0.1400
      6 C6         -0.5159    0.7493   44.0159 C.3     1  ZINC001053433946   -0.1300
      7 C7         -0.5515    1.4020   45.4001 C.3     1  ZINC001053433946   -0.1700
      8 H8         -0.7955    2.4631   45.4500 H       1  ZINC001053433946    0.1400
      9 C9          0.4395    0.9140   46.4251 C.2     1  ZINC001053433946    0.5400
     10 O10         1.2458    0.0576   46.1295 O.2     1  ZINC001053433946   -0.5200
     11 N11         0.4298    1.4294   47.6705 N.am    1  ZINC001053433946   -0.6100
     12 C12         1.3867    0.9702   48.6894 C.3     1  ZINC001053433946    0.0700
     13 C13         0.6103    0.5692   49.9480 C.3     1  ZINC001053433946    0.0500
     14 O14        -0.2223    1.6583   50.3585 O.3     1  ZINC001053433946   -0.3400
     15 C15        -1.1789    2.0566   49.3803 C.3     1  ZINC001053433946    0.0800
     16 C16        -2.3431    1.0704   49.2165 C.3     1  ZINC001053433946   -0.0100
     17 N17        -3.0376    1.8787   50.2443 N.3     1  ZINC001053433946   -0.4700
     18 C18        -4.4451    2.0934   49.8828 C.3     1  ZINC001053433946    0.0200
     19 C19        -5.0575    3.1399   50.8160 C.3     1  ZINC001053433946   -0.1200
     20 H20        -4.6658    4.1256   50.5648 H       1  ZINC001053433946    0.0800
     21 C21        -6.5810    3.1387   50.6569 C.3     1  ZINC001053433946   -0.1200
     22 C22        -7.1878    4.1339   51.6507 C.3     1  ZINC001053433946   -0.1600
     23 C23        -6.7516    3.7571   53.0689 C.3     1  ZINC001053433946    0.0600
     24 O24        -5.3242    3.7470   53.1399 O.3     1  ZINC001053433946   -0.3800
     25 C25        -4.7021    2.8025   52.2664 C.3     1  ZINC001053433946    0.0700
     26 C26        -2.2153    3.0611   49.9010 C.3     1  ZINC001053433946    0.0200
     27 C27        -0.5354    2.4749   48.0529 C.3     1  ZINC001053433946    0.1000
     28 H28        -1.6325   -1.9147   47.3752 H       1  ZINC001053433946    0.4000
     29 H29        -1.5553   -0.2421   47.5138 H       1  ZINC001053433946    0.4000
     30 H30         0.2239   -0.0332   43.8470 H       1  ZINC001053433946    0.1100
     31 H31        -0.7366    1.3814   43.1558 H       1  ZINC001053433946    0.1200
     32 H32         1.9389    0.1099   48.3110 H       1  ZINC001053433946    0.1000
     33 H33         2.0804    1.7761   48.9289 H       1  ZINC001053433946    0.0800
     34 H34        -0.0095   -0.3009   49.7313 H       1  ZINC001053433946    0.0600
     35 H35         1.3118    0.3267   50.7463 H       1  ZINC001053433946    0.1100
     36 H36        -2.8157    1.1073   48.2351 H       1  ZINC001053433946    0.0800
     37 H37        -2.1087    0.0561   49.5396 H       1  ZINC001053433946    0.0900
     38 H38        -4.5062    2.4450   48.8528 H       1  ZINC001053433946    0.0500
     39 H39        -4.9922    1.1557   49.9796 H       1  ZINC001053433946    0.0800
     40 H40        -6.8416    3.4336   49.6404 H       1  ZINC001053433946    0.0700
     41 H41        -6.9679    2.1399   50.8588 H       1  ZINC001053433946    0.0700
     42 H42        -6.8393    5.1400   51.4175 H       1  ZINC001053433946    0.0700
     43 H43        -8.2752    4.0992   51.5829 H       1  ZINC001053433946    0.0700
     44 H44        -7.1455    4.4869   53.7763 H       1  ZINC001053433946    0.0900
     45 H45        -7.1348    2.7672   53.3164 H       1  ZINC001053433946    0.0500
     46 H46        -5.0581    1.7997   52.5024 H       1  ZINC001053433946    0.0500
     47 H47        -3.6207    2.8445   52.3964 H       1  ZINC001053433946    0.1000
     48 H48        -1.8794    3.6297   50.7681 H       1  ZINC001053433946    0.1000
     49 H49        -2.6501    3.6877   49.1221 H       1  ZINC001053433946    0.0900
     50 H50        -0.0239    3.4296   48.1762 H       1  ZINC001053433946    0.0800
     51 H51        -1.3026    2.5641   47.2837 H       1  ZINC001053433946    0.1000
@<TRIPOS>BOND
     1     1     2   am
     2     1    28    1
     3     1    29    1
     4     2     3    2
     5     2     4    1
     6     4     5    1
     7     4     7    1
     8     4     6    1
     9     6     7    1
    10     6    30    1
    11     6    31    1
    12     7     8    1
    13     7     9    1
    14     9    10    2
    15     9    11   am
    16    11    27    1
    17    11    12    1
    18    12    13    1
    19    12    32    1
    20    12    33    1
    21    13    14    1
    22    13    34    1
    23    13    35    1
    24    14    15    1
    25    15    26    1
    26    15    16    1
    27    15    27    1
    28    16    17    1
    29    16    36    1
    30    16    37    1
    31    17    18    1
    32    17    26    1
    33    18    19    1
    34    18    38    1
    35    18    39    1
    36    19    20    1
    37    19    25    1
    38    19    21    1
    39    21    22    1
    40    21    40    1
    41    21    41    1
    42    22    23    1
    43    22    42    1
    44    22    43    1
    45    23    24    1
    46    23    44    1
    47    23    45    1
    48    24    25    1
    49    25    46    1
    50    25    47    1
    51    26    48    1
    52    26    49    1
    53    27    50    1
    54    27    51    1
@<TRIPOS>SUBSTRUCTURE
     1 ZINC001053433946        1 TEMP              0 ****  ****    0 ROOT


##########                                Name:    ZINC000329637067
##########                DOCK_Rotatable_Bonds:                   5
##########                         Heavy_Atoms:                  26
##########                    Molecular_Weight:             362.429
##########                DOCK_Rotatable_Bonds:                   5
##########                       Formal_Charge:           0.0199998
##########                     HBond_Acceptors:                   8
##########                        HBond_Donors:                   0
##########                         Heavy_Atoms:                  26
##########                          Grid_Score:          -31.681059
##########                     Grid_vdw_energy:          -29.695578
##########                      Grid_es_energy:           -1.985481
##########           Internal_energy_repulsive:          126.971275

@<TRIPOS>MOLECULE
ZINC000329637067
 52 54 1 0 0
SMALL
USER_CHARGES


@<TRIPOS>ATOM
      1 C1         -0.7202   -0.9968   48.7543 C.3     1  ZINC000329637067   -0.1300
      2 C2         -0.8672   -0.0835   47.5645 C.2     1  ZINC000329637067    0.2200
      3 C3         -1.1497   -0.5940   46.3357 C.2     1  ZINC000329637067   -0.2900
      4 C4         -1.2800    0.2784   45.2511 C.2     1  ZINC000329637067    0.2800
      5 C5         -1.5932   -0.2625   43.8798 C.3     1  ZINC000329637067   -0.1200
      6 N6         -1.1288    1.5750   45.4309 N.2     1  ZINC000329637067   -0.5500
      7 C7         -0.8515    2.0701   46.6396 C.2     1  ZINC000329637067    0.6400
      8 O8         -0.7163    3.2741   46.7792 O.2     1  ZINC000329637067   -0.5300
      9 N9         -0.7246    1.2600   47.7072 N.am    1  ZINC000329637067   -0.5000
     10 C10        -0.4206    1.8272   49.0233 C.3     1  ZINC000329637067    0.0700
     11 C11        -1.6760    2.4065   49.6229 C.2     1  ZINC000329637067    0.5100
     12 O12        -2.7518    2.1848   49.1086 O.2     1  ZINC000329637067   -0.5200
     13 N13        -1.6033    3.1708   50.7306 N.am    1  ZINC000329637067   -0.6100
     14 C14        -0.3073    3.4481   51.3649 C.3     1  ZINC000329637067    0.1000
     15 C15        -0.1461    4.9641   51.5149 C.3     1  ZINC000329637067   -0.1400
     16 C16        -1.3502    5.5287   52.2721 C.3     1  ZINC000329637067   -0.1000
     17 C17        -2.6289    5.2553   51.4771 C.3     1  ZINC000329637067   -0.1200
     18 H18        -2.5485    5.7118   50.4905 H       1  ZINC000329637067    0.1000
     19 C19        -3.8101    5.8407   52.2072 C.2     1  ZINC000329637067    0.5300
     20 O20        -4.4317    6.7592   51.7167 O.2     1  ZINC000329637067   -0.5300
     21 N21        -4.1756    5.3435   53.4054 N.am    1  ZINC000329637067   -0.6200
     22 C22        -3.4328    4.2336   54.0234 C.3     1  ZINC000329637067    0.0800
     23 C23        -3.0854    4.6269   55.4637 C.3     1  ZINC000329637067    0.0500
     24 O24        -4.2746    5.0476   56.1366 O.3     1  ZINC000329637067   -0.3800
     25 C25        -4.8889    6.2073   55.5695 C.3     1  ZINC000329637067    0.0500
     26 C26        -5.3252    5.8986   54.1372 C.3     1  ZINC000329637067    0.0700
     27 C27        -2.8176    3.7477   51.3231 C.3     1  ZINC000329637067    0.1200
     28 H28        -1.4098   -0.6852   49.5388 H       1  ZINC000329637067    0.0900
     29 H29        -0.9470   -2.0206   48.4567 H       1  ZINC000329637067    0.1000
     30 H30         0.3024   -0.9451   49.1279 H       1  ZINC000329637067    0.0900
     31 H31        -1.2712   -1.6585   46.1998 H       1  ZINC000329637067    0.1600
     32 H32        -2.6738   -0.3022   43.7430 H       1  ZINC000329637067    0.1000
     33 H33        -1.1548    0.3886   43.1235 H       1  ZINC000329637067    0.0900
     34 H34        -1.1773   -1.2653   43.7812 H       1  ZINC000329637067    0.0900
     35 H35        -0.0340    1.0444   49.6758 H       1  ZINC000329637067    0.1200
     36 H36         0.3271    2.6132   48.9162 H       1  ZINC000329637067    0.1300
     37 H37        -0.2736    2.9780   52.3478 H       1  ZINC000329637067    0.0800
     38 H38         0.4961    3.0550   50.7419 H       1  ZINC000329637067    0.0900
     39 H39         0.7667    5.1797   52.0703 H       1  ZINC000329637067    0.0900
     40 H40        -0.0889    5.4232   50.5280 H       1  ZINC000329637067    0.0700
     41 H41        -1.4211    5.0512   53.2494 H       1  ZINC000329637067    0.0800
     42 H42        -1.2260    6.6039   52.4017 H       1  ZINC000329637067    0.0800
     43 H43        -4.0505    3.3355   54.0269 H       1  ZINC000329637067    0.0800
     44 H44        -2.5169    4.0476   53.4626 H       1  ZINC000329637067    0.1000
     45 H45        -2.6578    3.7689   55.9824 H       1  ZINC000329637067    0.1100
     46 H46        -2.3642    5.4441   55.4541 H       1  ZINC000329637067    0.0600
     47 H47        -5.7588    6.4861   56.1643 H       1  ZINC000329637067    0.1100
     48 H48        -4.1743    7.0301   55.5603 H       1  ZINC000329637067    0.0600
     49 H49        -5.6644    6.8135   53.6515 H       1  ZINC000329637067    0.1000
     50 H50        -6.1335    5.1673   54.1492 H       1  ZINC000329637067    0.0800
     51 H51        -3.6714    3.5506   50.6746 H       1  ZINC000329637067    0.1000
     52 H52        -2.9883    3.2990   52.3017 H       1  ZINC000329637067    0.0800
@<TRIPOS>BOND
     1     1     2    1
     2     1    28    1
     3     1    29    1
     4     1    30    1
     5     2     9    1
     6     2     3    2
     7     3     4    1
     8     3    31    1
     9     4     5    1
    10     4     6    2
    11     5    32    1
    12     5    33    1
    13     5    34    1
    14     6     7    1
    15     7     8    2
    16     7     9   am
    17     9    10    1
    18    10    11    1
    19    10    35    1
    20    10    36    1
    21    11    12    2
    22    11    13   am
    23    13    27    1
    24    13    14    1
    25    14    15    1
    26    14    37    1
    27    14    38    1
    28    15    16    1
    29    15    39    1
    30    15    40    1
    31    16    17    1
    32    16    41    1
    33    16    42    1
    34    17    18    1
    35    17    19    1
    36    17    27    1
    37    19    20    2
    38    19    21   am
    39    21    26    1
    40    21    22    1
    41    22    23    1
    42    22    43    1
    43    22    44    1
    44    23    24    1
    45    23    45    1
    46    23    46    1
    47    24    25    1
    48    25    26    1
    49    25    47    1
    50    25    48    1
    51    26    49    1
    52    26    50    1
    53    27    51    1
    54    27    52    1
@<TRIPOS>SUBSTRUCTURE
     1 ZINC000329637067        1 TEMP              0 ****  ****    0 ROOT


##########                                Name:    ZINC000422507946
##########                DOCK_Rotatable_Bonds:                   7
##########                         Heavy_Atoms:                  25
##########                    Molecular_Weight:             364.484
##########                DOCK_Rotatable_Bonds:                   7
##########                       Formal_Charge:          0.00999952
##########                     HBond_Acceptors:                   6
##########                        HBond_Donors:                   1
##########                         Heavy_Atoms:                  25
##########                          Grid_Score:          -31.680323
##########                     Grid_vdw_energy:          -30.620832
##########                      Grid_es_energy:           -1.059491
##########           Internal_energy_repulsive:           36.351387

@<TRIPOS>MOLECULE
ZINC000422507946
 50 52 1 0 0
SMALL
USER_CHARGES


@<TRIPOS>ATOM
      1 C1         -6.9774    0.2643   52.3960 C.3     1  ZINC000422507946   -0.1400
      2 C2         -6.7096    1.2899   51.2928 C.3     1  ZINC000422507946   -0.0400
      3 H3         -7.0975    0.9314   50.3393 H       1  ZINC000422507946    0.1100
      4 C4         -5.1982    1.5799   51.1835 C.3     1  ZINC000422507946   -0.1400
      5 C5         -5.0004    3.0500   50.7751 C.3     1  ZINC000422507946    0.1400
      6 H6         -5.2829    3.1878   49.7314 H       1  ZINC000422507946    0.1100
      7 N7         -3.6017    3.4398   50.9703 N.am    1  ZINC000422507946   -0.6900
      8 C8         -2.7118    3.2800   49.9708 C.2     1  ZINC000422507946    0.5100
      9 O9         -3.0694    2.8147   48.9087 O.2     1  ZINC000422507946   -0.5000
     10 C10        -1.2847    3.6760   50.1706 C.2     1  ZINC000422507946    0.5100
     11 O11        -1.0049    4.8289   50.4259 O.2     1  ZINC000422507946   -0.5200
     12 N12        -0.3084    2.7526   50.0671 N.am    1  ZINC000422507946   -0.5700
     13 C13        -0.6463    1.3608   49.7588 C.3     1  ZINC000422507946    0.1400
     14 C14        -0.8066    1.2009   48.2689 C.ar    1  ZINC000422507946   -0.0800
     15 C15        -0.9352   -0.0608   47.7194 C.ar    1  ZINC000422507946   -0.1100
     16 C16        -1.0824   -0.2091   46.3526 C.ar    1  ZINC000422507946   -0.0900
     17 C17        -1.1011    0.9042   45.5344 C.ar    1  ZINC000422507946   -0.1500
     18 C18        -0.9727    2.1689   46.0839 C.ar    1  ZINC000422507946    0.1000
     19 F19        -0.9908    3.2580   45.2849 F       1  ZINC000422507946   -0.1400
     20 C20        -0.8307    2.3163   47.4531 C.ar    1  ZINC000422507946   -0.1500
     21 C21         1.0907    3.1406   50.2629 C.3     1  ZINC000422507946    0.1400
     22 C22         1.5504    2.7602   51.6855 C.3     1  ZINC000422507946   -0.1200
     23 C23         2.2393    1.3845   51.5069 C.3     1  ZINC000422507946   -0.1300
     24 C24         2.9711    1.5422   50.1510 C.3     1  ZINC000422507946   -0.1200
     25 C25         1.9940    2.3661   49.2873 C.3     1  ZINC000422507946   -0.1600
     26 C26        -5.9209    3.9000   51.6899 C.3     1  ZINC000422507946   -0.0900
     27 S27        -7.4636    2.9020   51.7231 S.3     1  ZINC000422507946   -0.2700
     28 H28        -8.0506    0.0923   52.4794 H       1  ZINC000422507946    0.0700
     29 H29        -6.4774   -0.6726   52.1504 H       1  ZINC000422507946    0.0700
     30 H30        -6.5952    0.6424   53.3442 H       1  ZINC000422507946    0.0700
     31 H31        -4.7207    1.4005   52.1468 H       1  ZINC000422507946    0.0900
     32 H32        -4.7541    0.9283   50.4311 H       1  ZINC000422507946    0.0900
     33 H33        -3.3162    3.8129   51.8190 H       1  ZINC000422507946    0.4100
     34 H34         0.1516    0.7067   50.1107 H       1  ZINC000422507946    0.1100
     35 H35        -1.5796    1.0950   50.2553 H       1  ZINC000422507946    0.1000
     36 H36        -0.9203   -0.9316   48.3582 H       1  ZINC000422507946    0.1400
     37 H37        -1.1824   -1.1955   45.9244 H       1  ZINC000422507946    0.1300
     38 H38        -1.2153    0.7881   44.4669 H       1  ZINC000422507946    0.1400
     39 H39        -0.7309    3.3022   47.8828 H       1  ZINC000422507946    0.1400
     40 H40         1.2057    4.2132   50.1068 H       1  ZINC000422507946    0.1100
     41 H41         2.2593    3.4952   52.0667 H       1  ZINC000422507946    0.0800
     42 H42         0.6931    2.6738   52.3532 H       1  ZINC000422507946    0.0600
     43 H43         2.9517    1.2019   52.3115 H       1  ZINC000422507946    0.0700
     44 H44         1.4993    0.5857   51.4560 H       1  ZINC000422507946    0.0600
     45 H45         3.9094    2.0804   50.2843 H       1  ZINC000422507946    0.0700
     46 H46         3.1507    0.5667   49.6988 H       1  ZINC000422507946    0.0700
     47 H47         1.3914    1.7016   48.6681 H       1  ZINC000422507946    0.0900
     48 H48         2.5480    3.0628   48.6582 H       1  ZINC000422507946    0.0800
     49 H49        -5.4960    3.9929   52.6893 H       1  ZINC000422507946    0.1000
     50 H50        -6.1039    4.8814   51.2521 H       1  ZINC000422507946    0.1100
@<TRIPOS>BOND
     1     1     2    1
     2     1    28    1
     3     1    29    1
     4     1    30    1
     5     2     3    1
     6     2    27    1
     7     2     4    1
     8     4     5    1
     9     4    31    1
    10     4    32    1
    11     5     6    1
    12     5     7    1
    13     5    26    1
    14     7     8   am
    15     7    33    1
    16     8     9    2
    17     8    10    1
    18    10    11    2
    19    10    12   am
    20    12    13    1
    21    12    21    1
    22    13    14    1
    23    13    34    1
    24    13    35    1
    25    14    20   ar
    26    14    15   ar
    27    15    16   ar
    28    15    36    1
    29    16    17   ar
    30    16    37    1
    31    17    18   ar
    32    17    38    1
    33    18    19    1
    34    18    20   ar
    35    20    39    1
    36    21    25    1
    37    21    22    1
    38    21    40    1
    39    22    23    1
    40    22    41    1
    41    22    42    1
    42    23    24    1
    43    23    43    1
    44    23    44    1
    45    24    25    1
    46    24    45    1
    47    24    46    1
    48    25    47    1
    49    25    48    1
    50    26    27    1
    51    26    49    1
    52    26    50    1
@<TRIPOS>SUBSTRUCTURE
     1 ZINC000422507946        1 TEMP              0 ****  ****    0 ROOT


##########                                Name:    ZINC000277085192
##########                DOCK_Rotatable_Bonds:                   4
##########                         Heavy_Atoms:                  23
##########                    Molecular_Weight:             335.747
##########                DOCK_Rotatable_Bonds:                   4
##########                       Formal_Charge:         5.96046e-08
##########                     HBond_Acceptors:                   8
##########                        HBond_Donors:                   2
##########                         Heavy_Atoms:                  23
##########                          Grid_Score:          -31.658224
##########                     Grid_vdw_energy:          -30.867386
##########                      Grid_es_energy:           -0.790838
##########           Internal_energy_repulsive:            6.252398

@<TRIPOS>MOLECULE
ZINC000277085192
 37 39 1 0 0
SMALL
USER_CHARGES


@<TRIPOS>ATOM
      1 O1         -0.8883    2.6885   47.2368 O.2     1  ZINC000277085192   -0.5000
      2 C2         -0.3627    1.7436   47.7864 C.2     1  ZINC000277085192    0.5000
      3 C3          0.6694    0.9249   47.0546 C.3     1  ZINC000277085192    0.1100
      4 N4          0.1221    0.4856   45.7686 N.am    1  ZINC000277085192   -0.6000
      5 C5         -1.1768   -0.1888   45.7293 C.3     1  ZINC000277085192    0.1100
      6 C6         -1.9298    0.2249   44.4629 C.3     1  ZINC000277085192   -0.1600
      7 C7         -0.9973    0.1370   43.2809 C.2     1  ZINC000277085192    0.5200
      8 O8         -1.4239   -0.1929   42.1952 O.2     1  ZINC000277085192   -0.5000
      9 N9          0.3083    0.4255   43.4319 N.am    1  ZINC000277085192   -0.6700
     10 C10         0.8165    0.7122   44.6416 C.2     1  ZINC000277085192    0.7200
     11 O11         1.9356    1.1800   44.7191 O.2     1  ZINC000277085192   -0.5500
     12 N12        -0.6976    1.4293   49.0534 N.am    1  ZINC000277085192   -0.6700
     13 C13        -1.6565    2.1899   49.7334 C.ar    1  ZINC000277085192    0.1400
     14 C14        -2.9911    1.8342   49.6725 C.ar    1  ZINC000277085192   -0.0400
     15 C15        -3.9529    2.5966   50.3534 C.ar    1  ZINC000277085192   -0.1700
     16 C16        -3.5487    3.7113   51.0889 C.ar    1  ZINC000277085192   -0.0500
     17 C17        -2.2114    4.0568   51.1427 C.ar    1  ZINC000277085192   -0.0900
     18 C18        -1.2655    3.3007   50.4751 C.ar    1  ZINC000277085192   -0.0300
     19 Cl19        0.4108    3.7458   50.5509 Cl      1  ZINC000277085192   -0.0500
     20 C20        -4.7539    4.3615   51.7255 C.3     1  ZINC000277085192   -0.0800
     21 C21        -5.9687    3.5236   51.3040 C.3     1  ZINC000277085192   -0.1700
     22 C22        -5.4116    2.4201   50.4379 C.2     1  ZINC000277085192    0.4100
     23 O23        -6.0542    1.5406   49.9048 O.2     1  ZINC000277085192   -0.4300
     24 H24         1.5590    1.5309   46.8830 H       1  ZINC000277085192    0.1300
     25 H25         0.9334    0.0534   47.6537 H       1  ZINC000277085192    0.1200
     26 H26        -1.0256   -1.2682   45.7257 H       1  ZINC000277085192    0.0800
     27 H27        -1.7590    0.0932   46.6066 H       1  ZINC000277085192    0.1000
     28 H28        -2.7773   -0.4429   44.3086 H       1  ZINC000277085192    0.1300
     29 H29        -2.2868    1.2492   44.5697 H       1  ZINC000277085192    0.1200
     30 H30         0.8896    0.4299   42.6554 H       1  ZINC000277085192    0.4300
     31 H31        -0.2744    0.6760   49.4942 H       1  ZINC000277085192    0.4200
     32 H32        -3.2937    0.9696   49.1005 H       1  ZINC000277085192    0.1500
     33 H33        -1.9030    4.9206   51.7128 H       1  ZINC000277085192    0.1500
     34 H34        -4.6531    4.3551   52.8109 H       1  ZINC000277085192    0.1000
     35 H35        -4.8615    5.3846   51.3651 H       1  ZINC000277085192    0.1000
     36 H36        -6.4604    3.1034   52.1814 H       1  ZINC000277085192    0.1100
     37 H37        -6.6690    4.1341   50.7338 H       1  ZINC000277085192    0.1100
@<TRIPOS>BOND
     1     1     2    2
     2     2     3    1
     3     2    12   am
     4     3     4    1
     5     3    24    1
     6     3    25    1
     7     4    10   am
     8     4     5    1
     9     5     6    1
    10     5    26    1
    11     5    27    1
    12     6     7    1
    13     6    28    1
    14     6    29    1
    15     7     8    2
    16     7     9   am
    17     9    10   am
    18     9    30    1
    19    10    11    2
    20    12    13    1
    21    12    31    1
    22    13    18   ar
    23    13    14   ar
    24    14    15   ar
    25    14    32    1
    26    15    22    1
    27    15    16   ar
    28    16    17   ar
    29    16    20    1
    30    17    18   ar
    31    17    33    1
    32    18    19    1
    33    20    21    1
    34    20    34    1
    35    20    35    1
    36    21    22    1
    37    21    36    1
    38    21    37    1
    39    22    23    2
@<TRIPOS>SUBSTRUCTURE
     1 ZINC000277085192        1 TEMP              0 ****  ****    0 ROOT


##########                                Name:    ZINC000931749147
##########                DOCK_Rotatable_Bonds:                   5
##########                         Heavy_Atoms:                  25
##########                    Molecular_Weight:             354.397
##########                DOCK_Rotatable_Bonds:                   5
##########                       Formal_Charge:        -4.76837e-07
##########                     HBond_Acceptors:                   7
##########                        HBond_Donors:                   1
##########                         Heavy_Atoms:                  25
##########                          Grid_Score:          -31.619495
##########                     Grid_vdw_energy:          -30.566683
##########                      Grid_es_energy:           -1.052813
##########           Internal_energy_repulsive:           82.035843

@<TRIPOS>MOLECULE
ZINC000931749147
 49 51 1 0 0
SMALL
USER_CHARGES


@<TRIPOS>ATOM
      1 C1         -0.8660   -0.1466   49.4374 C.3     1  ZINC000931749147   -0.1100
      2 C2         -1.2797    0.2277   48.0375 C.ar    1  ZINC000931749147   -0.1300
      3 C3         -1.6888    1.5242   47.7573 C.ar    1  ZINC000931749147    0.1800
      4 N4         -1.7172    2.4857   48.7752 N.am    1  ZINC000931749147   -0.6800
      5 C5         -2.8743    2.7633   49.4080 C.2     1  ZINC000931749147    0.7100
      6 O6         -3.8937    2.1789   49.0952 O.2     1  ZINC000931749147   -0.5500
      7 N7         -2.9015    3.6887   50.3875 N.am    1  ZINC000931749147   -0.6200
      8 C8         -1.6809    4.4088   50.7834 C.3     1  ZINC000931749147    0.0700
      9 C9         -1.5386    4.3179   52.3071 C.3     1  ZINC000931749147    0.0500
     10 O10        -2.7565    4.7478   52.9200 O.3     1  ZINC000931749147   -0.3700
     11 C11        -3.8903    3.9376   52.6007 C.3     1  ZINC000931749147    0.0500
     12 C12        -4.1541    4.0131   51.0884 C.3     1  ZINC000931749147    0.1300
     13 H13        -4.4802    5.0185   50.8224 H       1  ZINC000931749147    0.0900
     14 C14        -5.2356    3.0018   50.7028 C.3     1  ZINC000931749147   -0.1100
     15 C15        -6.4805    3.2342   51.5615 C.3     1  ZINC000931749147   -0.1000
     16 C16        -7.7223    3.2674   50.6653 C.3     1  ZINC000931749147   -0.1500
     17 C17        -8.9692    3.4213   51.5399 C.3     1  ZINC000931749147    0.0600
     18 O18        -9.0267    2.3454   52.4788 O.3     1  ZINC000931749147   -0.3800
     19 C19        -7.9145    2.2926   53.3745 C.3     1  ZINC000931749147    0.0600
     20 C20        -6.6251    2.0934   52.5735 C.3     1  ZINC000931749147   -0.1500
     21 C21        -2.0697    1.8668   46.4667 C.ar    1  ZINC000931749147   -0.1200
     22 C22        -2.0411    0.9180   45.4633 C.ar    1  ZINC000931749147   -0.1100
     23 C23        -1.6330   -0.3749   45.7427 C.ar    1  ZINC000931749147    0.0500
     24 F24        -1.6057   -1.3013   44.7596 F       1  ZINC000931749147   -0.1300
     25 C25        -1.2466   -0.7188   47.0293 C.ar    1  ZINC000931749147    0.0900
     26 F26        -0.8486   -1.9810   47.3005 F       1  ZINC000931749147   -0.1200
     27 H27         0.2032    0.0269   49.5590 H       1  ZINC000931749147    0.0800
     28 H28        -1.4168    0.4624   50.1542 H       1  ZINC000931749147    0.0700
     29 H29        -1.0852   -1.2001   49.6116 H       1  ZINC000931749147    0.0800
     30 H30        -0.9040    2.9521   49.0247 H       1  ZINC000931749147    0.4100
     31 H31        -0.8141    3.9521   50.3059 H       1  ZINC000931749147    0.0800
     32 H32        -1.7577    5.4539   50.4836 H       1  ZINC000931749147    0.0900
     33 H33        -1.3317    3.2864   52.5924 H       1  ZINC000931749147    0.0600
     34 H34        -0.7200    4.9583   52.6351 H       1  ZINC000931749147    0.1100
     35 H35        -3.6919    2.9048   52.8873 H       1  ZINC000931749147    0.0600
     36 H36        -4.7635    4.3045   53.1402 H       1  ZINC000931749147    0.1100
     37 H37        -5.4914    3.1268   49.6507 H       1  ZINC000931749147    0.1100
     38 H38        -4.8634    1.9908   50.8687 H       1  ZINC000931749147    0.0700
     39 H39        -6.3862    4.1820   52.0915 H       1  ZINC000931749147    0.0700
     40 H40        -7.6531    4.1106   49.9782 H       1  ZINC000931749147    0.0700
     41 H41        -7.7873    2.3387   50.0984 H       1  ZINC000931749147    0.0700
     42 H42        -8.9227    4.3693   52.0759 H       1  ZINC000931749147    0.0500
     43 H43        -9.8592    3.4026   50.9108 H       1  ZINC000931749147    0.0900
     44 H44        -7.8541    3.2259   53.9344 H       1  ZINC000931749147    0.0500
     45 H45        -8.0445    1.4608   54.0669 H       1  ZINC000931749147    0.0900
     46 H46        -6.6680    1.1410   52.0451 H       1  ZINC000931749147    0.0700
     47 H47        -5.7712    2.0971   53.2510 H       1  ZINC000931749147    0.0700
     48 H48        -2.3885    2.8751   46.2475 H       1  ZINC000931749147    0.1800
     49 H49        -2.3376    1.1850   44.4596 H       1  ZINC000931749147    0.1500
@<TRIPOS>BOND
     1     1     2    1
     2     1    27    1
     3     1    28    1
     4     1    29    1
     5     2    25   ar
     6     2     3   ar
     7     3     4    1
     8     3    21   ar
     9     4     5   am
    10     4    30    1
    11     5     6    2
    12     5     7   am
    13     7    12    1
    14     7     8    1
    15     8     9    1
    16     8    31    1
    17     8    32    1
    18     9    10    1
    19     9    33    1
    20     9    34    1
    21    10    11    1
    22    11    12    1
    23    11    35    1
    24    11    36    1
    25    12    13    1
    26    12    14    1
    27    14    15    1
    28    14    37    1
    29    14    38    1
    30    15    20    1
    31    15    16    1
    32    15    39    1
    33    16    17    1
    34    16    40    1
    35    16    41    1
    36    17    18    1
    37    17    42    1
    38    17    43    1
    39    18    19    1
    40    19    20    1
    41    19    44    1
    42    19    45    1
    43    20    46    1
    44    20    47    1
    45    21    22   ar
    46    21    48    1
    47    22    23   ar
    48    22    49    1
    49    23    24    1
    50    23    25   ar
    51    25    26    1
@<TRIPOS>SUBSTRUCTURE
     1 ZINC000931749147        1 TEMP              0 ****  ****    0 ROOT


##########                                Name:    ZINC001282645012
##########                DOCK_Rotatable_Bonds:                   9
##########                         Heavy_Atoms:                  27
##########                    Molecular_Weight:             372.511
##########                DOCK_Rotatable_Bonds:                   9
##########                       Formal_Charge:          -0.0200004
##########                     HBond_Acceptors:                   6
##########                        HBond_Donors:                   1
##########                         Heavy_Atoms:                  27
##########                          Grid_Score:          -31.601082
##########                     Grid_vdw_energy:          -30.807045
##########                      Grid_es_energy:           -0.794037
##########           Internal_energy_repulsive:           35.120739

@<TRIPOS>MOLECULE
ZINC001282645012
 59 61 1 0 0
SMALL
USER_CHARGES


@<TRIPOS>ATOM
      1 C1         -0.8304    0.6774   44.1738 C.2     1  ZINC001282645012   -0.1900
      2 C2         -0.4689    1.8189   44.7051 C.2     1  ZINC001282645012   -0.1300
      3 C3          0.9416    2.0059   45.2018 C.3     1  ZINC001282645012   -0.0500
      4 C4          1.9256    1.6871   44.0745 C.3     1  ZINC001282645012   -0.1500
      5 C5          1.1354    3.4549   45.6534 C.3     1  ZINC001282645012   -0.1400
      6 C6          1.1918    1.0797   46.3640 C.2     1  ZINC001282645012    0.5500
      7 O7          2.1656    0.3569   46.3645 O.2     1  ZINC001282645012   -0.5300
      8 N8          0.3335    1.0548   47.4028 N.am    1  ZINC001282645012   -0.6300
      9 C9          0.3437    0.2422   48.6664 C.3     1  ZINC001282645012    0.1200
     10 H10         1.1750   -0.4538   48.7774 H       1  ZINC001282645012    0.1300
     11 C11        -1.0731   -0.4050   48.6168 C.3     1  ZINC001282645012   -0.1300
     12 C12        -1.9395    0.6773   47.9268 C.3     1  ZINC001282645012   -0.1300
     13 C13        -0.9246    1.8358   47.6566 C.3     1  ZINC001282645012    0.1200
     14 H14        -1.2119    2.5403   46.8759 H       1  ZINC001282645012    0.1200
     15 C15        -0.6419    2.4613   49.0557 C.3     1  ZINC001282645012    0.1300
     16 H16        -0.0857    3.3931   48.9546 H       1  ZINC001282645012    0.1000
     17 N17        -1.8936    2.6857   49.7831 N.am    1  ZINC001282645012   -0.7100
     18 C18        -1.8839    3.3632   50.9482 C.2     1  ZINC001282645012    0.5100
     19 O19        -0.8387    3.7858   51.3952 O.2     1  ZINC001282645012   -0.5100
     20 C20        -3.1718    3.5957   51.6955 C.3     1  ZINC001282645012    0.1200
     21 H21        -3.0384    3.3237   52.7426 H       1  ZINC001282645012    0.1300
     22 C22        -3.5590    5.0726   51.5974 C.3     1  ZINC001282645012   -0.1100
     23 C23        -4.9195    5.2884   52.2631 C.3     1  ZINC001282645012   -0.1000
     24 C24        -4.8377    4.8793   53.7351 C.3     1  ZINC001282645012   -0.1500
     25 C25        -5.3067    6.7653   52.1650 C.3     1  ZINC001282645012   -0.1500
     26 N26        -4.2323    2.7727   51.1086 N.pl3   1  ZINC001282645012   -0.4500
     27 C27        -4.9211    1.7686   51.7337 C.2     1  ZINC001282645012   -0.0600
     28 C28        -5.7988    1.2809   50.8363 C.2     1  ZINC001282645012   -0.0200
     29 N29        -5.6499    1.9683   49.6944 N.2     1  ZINC001282645012   -0.4900
     30 C30        -4.7168    2.8670   49.8516 C.2     1  ZINC001282645012    0.1900
     31 C31         0.2581    1.3649   49.7441 C.3     1  ZINC001282645012   -0.1400
     32 H32        -0.1174   -0.1298   44.0916 H       1  ZINC001282645012    0.1000
     33 H33        -1.8424    0.5418   43.8220 H       1  ZINC001282645012    0.1000
     34 H34        -1.1818    2.6260   44.7874 H       1  ZINC001282645012    0.1100
     35 H35         1.7446    2.3570   43.2339 H       1  ZINC001282645012    0.0700
     36 H36         2.9458    1.8224   44.4337 H       1  ZINC001282645012    0.0700
     37 H37         1.7876    0.6549   43.7528 H       1  ZINC001282645012    0.0600
     38 H38         0.4342    3.6820   46.4565 H       1  ZINC001282645012    0.0600
     39 H39         2.1556    3.5901   46.0126 H       1  ZINC001282645012    0.0700
     40 H40         0.9543    4.1247   44.8129 H       1  ZINC001282645012    0.0700
     41 H41        -1.0569   -1.3195   48.0238 H       1  ZINC001282645012    0.0800
     42 H42        -1.4392   -0.6055   49.6237 H       1  ZINC001282645012    0.0800
     43 H43        -2.3529    0.2995   46.9917 H       1  ZINC001282645012    0.0700
     44 H44        -2.7351    1.0134   48.5916 H       1  ZINC001282645012    0.0800
     45 H45        -2.7294    2.3467   49.4262 H       1  ZINC001282645012    0.4000
     46 H46        -2.8072    5.6795   52.1019 H       1  ZINC001282645012    0.0900
     47 H47        -3.6173    5.3640   50.5487 H       1  ZINC001282645012    0.0800
     48 H48        -5.6713    4.6814   51.7586 H       1  ZINC001282645012    0.0700
     49 H49        -4.0859    5.4863   54.2397 H       1  ZINC001282645012    0.0600
     50 H50        -5.8070    5.0331   54.2094 H       1  ZINC001282645012    0.0600
     51 H51        -4.5618    3.8271   53.8050 H       1  ZINC001282645012    0.0500
     52 H52        -5.4486    7.0350   51.1184 H       1  ZINC001282645012    0.0600
     53 H53        -6.2336    6.9351   52.7128 H       1  ZINC001282645012    0.0600
     54 H54        -4.5138    7.3781   52.5938 H       1  ZINC001282645012    0.0600
     55 H55        -4.7864    1.4319   52.7511 H       1  ZINC001282645012    0.1700
     56 H56        -6.4997    0.4770   51.0063 H       1  ZINC001282645012    0.1700
     57 H57        -4.3827    3.5659   49.0991 H       1  ZINC001282645012    0.2000
     58 H58        -0.2281    0.9750   50.6383 H       1  ZINC001282645012    0.0900
     59 H59         1.2403    1.7708   49.9859 H       1  ZINC001282645012    0.0900
@<TRIPOS>BOND
     1     1     2    2
     2     1    32    1
     3     1    33    1
     4     2     3    1
     5     2    34    1
     6     3     4    1
     7     3     5    1
     8     3     6    1
     9     4    35    1
    10     4    36    1
    11     4    37    1
    12     5    38    1
    13     5    39    1
    14     5    40    1
    15     6     7    2
    16     6     8   am
    17     8    13    1
    18     8     9    1
    19     9    10    1
    20     9    31    1
    21     9    11    1
    22    11    12    1
    23    11    41    1
    24    11    42    1
    25    12    13    1
    26    12    43    1
    27    12    44    1
    28    13    14    1
    29    13    15    1
    30    15    16    1
    31    15    17    1
    32    15    31    1
    33    17    18   am
    34    17    45    1
    35    18    19    2
    36    18    20    1
    37    20    21    1
    38    20    22    1
    39    20    26    1
    40    22    23    1
    41    22    46    1
    42    22    47    1
    43    23    24    1
    44    23    25    1
    45    23    48    1
    46    24    49    1
    47    24    50    1
    48    24    51    1
    49    25    52    1
    50    25    53    1
    51    25    54    1
    52    26    30    1
    53    26    27    1
    54    27    28    2
    55    27    55    1
    56    28    29    1
    57    28    56    1
    58    29    30    2
    59    30    57    1
    60    31    58    1
    61    31    59    1
@<TRIPOS>SUBSTRUCTURE
     1 ZINC001282645012        1 TEMP              0 ****  ****    0 ROOT


##########                                Name:    ZINC000477589488
##########                DOCK_Rotatable_Bonds:                   6
##########                         Heavy_Atoms:                  32
##########                    Molecular_Weight:             423.517
##########                DOCK_Rotatable_Bonds:                   6
##########                       Formal_Charge:        -8.19564e-07
##########                     HBond_Acceptors:                   6
##########                        HBond_Donors:                   1
##########                         Heavy_Atoms:                  32
##########                          Grid_Score:          -31.600069
##########                     Grid_vdw_energy:          -31.294941
##########                      Grid_es_energy:           -0.305127
##########           Internal_energy_repulsive:           22.588833

@<TRIPOS>MOLECULE
ZINC000477589488
 57 61 1 0 0
SMALL
USER_CHARGES


@<TRIPOS>ATOM
      1 O1         -1.9429    4.1004   50.1513 O.2     1  ZINC000477589488   -0.5800
      2 C2         -2.6475    3.1275   49.9632 C.2     1  ZINC000477589488    0.7100
      3 N3         -2.2947    2.2074   49.0438 N.am    1  ZINC000477589488   -0.7400
      4 C4         -1.0653    2.3827   48.2665 C.3     1  ZINC000477589488    0.2500
      5 H5         -0.9820    3.4216   47.9475 H       1  ZINC000477589488    0.1100
      6 C6         -1.1048    1.4870   47.0552 C.ar    1  ZINC000477589488   -0.0900
      7 C7         -1.2650    0.1226   47.2096 C.ar    1  ZINC000477589488   -0.1000
      8 C8         -1.3012   -0.6991   46.0985 C.ar    1  ZINC000477589488   -0.1200
      9 C9         -1.1777   -0.1563   44.8331 C.ar    1  ZINC000477589488   -0.1200
     10 C10        -1.0185    1.2081   44.6788 C.ar    1  ZINC000477589488   -0.1200
     11 C11        -0.9866    2.0303   45.7897 C.ar    1  ZINC000477589488   -0.1000
     12 C12         0.1239    2.0222   49.1192 C.ar    1  ZINC000477589488   -0.0700
     13 C13         1.3284    2.7337   48.9883 C.ar    1  ZINC000477589488   -0.0400
     14 C14         1.4564    3.7894   48.0695 C.ar    1  ZINC000477589488   -0.1100
     15 C15         2.6384    4.4563   47.9705 C.ar    1  ZINC000477589488   -0.1100
     16 C16         3.7278    4.1081   48.7673 C.ar    1  ZINC000477589488   -0.1100
     17 C17         3.6410    3.0913   49.6675 C.ar    1  ZINC000477589488   -0.1100
     18 C18         2.4360    2.3799   49.7990 C.ar    1  ZINC000477589488   -0.0500
     19 C19         2.3081    1.3245   50.7177 C.ar    1  ZINC000477589488   -0.1000
     20 C20         1.1252    0.6583   50.8176 C.ar    1  ZINC000477589488   -0.1100
     21 C21         0.0349    1.0093   50.0243 C.ar    1  ZINC000477589488   -0.1100
     22 N22        -3.7785    2.9663   50.6783 N.am    1  ZINC000477589488   -0.6300
     23 C23        -4.1851    3.9612   51.6823 C.3     1  ZINC000477589488    0.1300
     24 C24        -5.6408    4.3573   51.4135 C.3     1  ZINC000477589488    0.0500
     25 N25        -6.4730    3.1478   51.3650 N.3     1  ZINC000477589488   -0.4700
     26 C26        -7.8223    3.4742   51.2853 C.ar    1  ZINC000477589488    0.2500
     27 C27        -8.4120    3.7183   50.0456 C.ar    1  ZINC000477589488   -0.1300
     28 C28        -9.7600    4.0399   50.0204 C.ar    1  ZINC000477589488   -0.0900
     29 C29       -10.4393    4.0990   51.2290 C.ar    1  ZINC000477589488    0.0200
     30 N30        -9.8019    3.8530   52.3564 N.ar    1  ZINC000477589488   -0.2200
     31 N31        -8.5552    3.5492   52.3869 N.ar    1  ZINC000477589488   -0.2800
     32 C32        -6.0766    2.2723   50.2539 C.3     1  ZINC000477589488    0.0400
     33 C33        -4.6419    1.7939   50.4710 C.3     1  ZINC000477589488    0.1200
     34 H34        -2.8546    1.4292   48.8966 H       1  ZINC000477589488    0.3900
     35 H35        -1.3614   -0.3014   48.1981 H       1  ZINC000477589488    0.1100
     36 H36        -1.4256   -1.7651   46.2190 H       1  ZINC000477589488    0.1200
     37 H37        -1.2053   -0.7984   43.9651 H       1  ZINC000477589488    0.1200
     38 H38        -0.9217    1.6321   43.6902 H       1  ZINC000477589488    0.1200
     39 H39        -0.8621    3.0963   45.6691 H       1  ZINC000477589488    0.1200
     40 H40         0.6210    4.0699   47.4451 H       1  ZINC000477589488    0.1300
     41 H41         2.7341    5.2672   47.2637 H       1  ZINC000477589488    0.1300
     42 H42         4.6548    4.6534   48.6686 H       1  ZINC000477589488    0.1300
     43 H43         4.4937    2.8323   50.2778 H       1  ZINC000477589488    0.1300
     44 H44         3.1440    1.0431   51.3409 H       1  ZINC000477589488    0.1300
     45 H45         1.0297   -0.1528   51.5243 H       1  ZINC000477589488    0.1300
     46 H46        -0.8925    0.4647   50.1237 H       1  ZINC000477589488    0.1200
     47 H47        -4.1012    3.5300   52.6799 H       1  ZINC000477589488    0.0800
     48 H48        -3.5461    4.8410   51.6057 H       1  ZINC000477589488    0.1100
     49 H49        -5.9937    5.0099   52.2121 H       1  ZINC000477589488    0.1000
     50 H50        -5.7048    4.8813   50.4599 H       1  ZINC000477589488    0.0600
     51 H51        -7.8363    3.6592   49.1337 H       1  ZINC000477589488    0.1500
     52 H52       -10.2667    4.2390   49.0876 H       1  ZINC000477589488    0.1500
     53 H53       -11.4903    4.3470   51.2461 H       1  ZINC000477589488    0.1700
     54 H54        -6.7456    1.4128   50.2116 H       1  ZINC000477589488    0.1000
     55 H55        -6.1347    2.8254   49.3165 H       1  ZINC000477589488    0.0600
     56 H56        -4.3047    1.2389   49.5956 H       1  ZINC000477589488    0.0800
     57 H57        -4.5987    1.1543   51.3525 H       1  ZINC000477589488    0.0900
@<TRIPOS>BOND
     1     1     2    2
     2     2     3   am
     3     2    22   am
     4     3     4    1
     5     3    34    1
     6     4     5    1
     7     4     6    1
     8     4    12    1
     9     6    11   ar
    10     6     7   ar
    11     7     8   ar
    12     7    35    1
    13     8     9   ar
    14     8    36    1
    15     9    10   ar
    16     9    37    1
    17    10    11   ar
    18    10    38    1
    19    11    39    1
    20    12    21   ar
    21    12    13   ar
    22    13    18   ar
    23    13    14   ar
    24    14    15   ar
    25    14    40    1
    26    15    16   ar
    27    15    41    1
    28    16    17   ar
    29    16    42    1
    30    17    18   ar
    31    17    43    1
    32    18    19   ar
    33    19    20   ar
    34    19    44    1
    35    20    21   ar
    36    20    45    1
    37    21    46    1
    38    22    33    1
    39    22    23    1
    40    23    24    1
    41    23    47    1
    42    23    48    1
    43    24    25    1
    44    24    49    1
    45    24    50    1
    46    25    26    1
    47    25    32    1
    48    26    31   ar
    49    26    27   ar
    50    27    28   ar
    51    27    51    1
    52    28    29   ar
    53    28    52    1
    54    29    30   ar
    55    29    53    1
    56    30    31   ar
    57    32    33    1
    58    32    54    1
    59    32    55    1
    60    33    56    1
    61    33    57    1
@<TRIPOS>SUBSTRUCTURE
     1 ZINC000477589488        1 TEMP              0 ****  ****    0 ROOT


##########                                Name:    ZINC000225856071
##########                DOCK_Rotatable_Bonds:                   6
##########                         Heavy_Atoms:                  29
##########                    Molecular_Weight:             409.549
##########                DOCK_Rotatable_Bonds:                   6
##########                       Formal_Charge:         -0.00999989
##########                     HBond_Acceptors:                   5
##########                        HBond_Donors:                   1
##########                         Heavy_Atoms:                  29
##########                          Grid_Score:          -31.589651
##########                     Grid_vdw_energy:          -31.759674
##########                      Grid_es_energy:            0.170024
##########           Internal_energy_repulsive:           32.777126

@<TRIPOS>MOLECULE
ZINC000225856071
 56 58 1 0 0
SMALL
USER_CHARGES


@<TRIPOS>ATOM
      1 C1         -6.3831    1.6008   53.3578 C.3     1  ZINC000225856071    0.0200
      2 O2         -6.2527    2.4269   52.1992 O.3     1  ZINC000225856071   -0.3100
      3 C3         -5.0118    2.9052   51.9190 C.ar    1  ZINC000225856071    0.1900
      4 C4         -4.2320    3.4481   52.9295 C.ar    1  ZINC000225856071   -0.2300
      5 C5         -2.9706    3.9332   52.6421 C.ar    1  ZINC000225856071    0.0700
      6 C6         -2.1229    4.5232   53.7395 C.3     1  ZINC000225856071   -0.1800
      7 C7         -2.4853    3.8773   51.3489 C.ar    1  ZINC000225856071   -0.7100
      8 S8         -0.8761    4.4962   50.9858 S.o2    1  ZINC000225856071    2.7000
      9 O9         -1.0407    5.8652   50.6422 O.2     1  ZINC000225856071   -0.9600
     10 O10        -0.0297    4.0555   52.0387 O.2     1  ZINC000225856071   -0.9500
     11 N11        -0.3539    3.7292   49.6140 N.am    1  ZINC000225856071   -1.1100
     12 C12        -0.2231    2.2702   49.5954 C.3     1  ZINC000225856071    0.2400
     13 H13        -0.8457    1.8395   50.3797 H       1  ZINC000225856071    0.1100
     14 C14         1.2162    1.8918   49.8319 C.ar    1  ZINC000225856071   -0.1000
     15 C15         2.0670    1.7043   48.7586 C.ar    1  ZINC000225856071   -0.1000
     16 C16         3.3873    1.3572   48.9756 C.ar    1  ZINC000225856071   -0.1200
     17 C17         3.8571    1.1981   50.2660 C.ar    1  ZINC000225856071   -0.1100
     18 C18         3.0066    1.3865   51.3393 C.ar    1  ZINC000225856071   -0.1100
     19 C19         1.6873    1.7378   51.1225 C.ar    1  ZINC000225856071   -0.1000
     20 C20        -0.6674    1.7431   48.2552 C.ar    1  ZINC000225856071   -0.0900
     21 C21        -0.9369    2.6210   47.2223 C.ar    1  ZINC000225856071   -0.1000
     22 C22        -1.3444    2.1374   45.9928 C.ar    1  ZINC000225856071   -0.1200
     23 C23        -1.4819    0.7762   45.7966 C.ar    1  ZINC000225856071   -0.0800
     24 C24        -1.9266    0.2492   44.4566 C.3     1  ZINC000225856071   -0.1200
     25 C25        -1.2110   -0.1020   46.8295 C.ar    1  ZINC000225856071   -0.1200
     26 C26        -0.7999    0.3812   48.0574 C.ar    1  ZINC000225856071   -0.0600
     27 C27        -0.5046   -0.5760   49.1833 C.3     1  ZINC000225856071   -0.1300
     28 C28        -3.2606    3.3361   50.3398 C.ar    1  ZINC000225856071    0.0200
     29 C29        -4.5206    2.8459   50.6227 C.ar    1  ZINC000225856071   -0.1400
     30 C30        -5.3648    2.2558   49.5225 C.3     1  ZINC000225856071   -0.1100
     31 H31        -6.0796    2.1629   54.2410 H       1  ZINC000225856071    0.0600
     32 H32        -7.4216    1.2876   53.4658 H       1  ZINC000225856071    0.1000
     33 H33        -5.7477    0.7216   53.2506 H       1  ZINC000225856071    0.0600
     34 H34        -4.6106    3.4919   53.9400 H       1  ZINC000225856071    0.1400
     35 H35        -1.5121    3.7396   54.1880 H       1  ZINC000225856071    0.0900
     36 H36        -1.4755    5.2950   53.3234 H       1  ZINC000225856071    0.1000
     37 H37        -2.7678    4.9617   54.5010 H       1  ZINC000225856071    0.0800
     38 H38        -0.1348    4.2459   48.8230 H       1  ZINC000225856071    0.4200
     39 H39         1.6999    1.8286   47.7506 H       1  ZINC000225856071    0.1200
     40 H40         4.0518    1.2100   48.1370 H       1  ZINC000225856071    0.1200
     41 H41         4.8884    0.9262   50.4355 H       1  ZINC000225856071    0.1200
     42 H42         3.3735    1.2618   52.3473 H       1  ZINC000225856071    0.1200
     43 H43         1.0228    1.8850   51.9610 H       1  ZINC000225856071    0.1200
     44 H44        -0.8294    3.6847   47.3756 H       1  ZINC000225856071    0.1200
     45 H45        -1.5556    2.8235   45.1858 H       1  ZINC000225856071    0.1200
     46 H46        -1.0535    0.0669   43.8300 H       1  ZINC000225856071    0.0700
     47 H47        -2.4745   -0.6827   44.5963 H       1  ZINC000225856071    0.0700
     48 H48        -2.5733    0.9822   43.9743 H       1  ZINC000225856071    0.0700
     49 H49        -1.3180   -1.1656   46.6760 H       1  ZINC000225856071    0.1200
     50 H50         0.5462   -0.8639   49.1493 H       1  ZINC000225856071    0.0800
     51 H51        -0.7182   -0.0926   50.1366 H       1  ZINC000225856071    0.0700
     52 H52        -1.1281   -1.4638   49.0784 H       1  ZINC000225856071    0.0700
     53 H53        -2.8791    3.2932   49.3302 H       1  ZINC000225856071    0.1500
     54 H54        -5.1655    1.1869   49.4454 H       1  ZINC000225856071    0.0700
     55 H55        -6.4192    2.4134   49.7494 H       1  ZINC000225856071    0.0700
     56 H56        -5.1201    2.7402   48.5772 H       1  ZINC000225856071    0.0700
@<TRIPOS>BOND
     1     1     2    1
     2     1    31    1
     3     1    32    1
     4     1    33    1
     5     2     3    1
     6     3    29   ar
     7     3     4   ar
     8     4     5   ar
     9     4    34    1
    10     5     6    1
    11     5     7   ar
    12     6    35    1
    13     6    36    1
    14     6    37    1
    15     7     8    1
    16     7    28   ar
    17     8     9    2
    18     8    10    2
    19     8    11   am
    20    11    12    1
    21    11    38    1
    22    12    13    1
    23    12    14    1
    24    12    20    1
    25    14    19   ar
    26    14    15   ar
    27    15    16   ar
    28    15    39    1
    29    16    17   ar
    30    16    40    1
    31    17    18   ar
    32    17    41    1
    33    18    19   ar
    34    18    42    1
    35    19    43    1
    36    20    26   ar
    37    20    21   ar
    38    21    22   ar
    39    21    44    1
    40    22    23   ar
    41    22    45    1
    42    23    24    1
    43    23    25   ar
    44    24    46    1
    45    24    47    1
    46    24    48    1
    47    25    26   ar
    48    25    49    1
    49    26    27    1
    50    27    50    1
    51    27    51    1
    52    27    52    1
    53    28    29   ar
    54    28    53    1
    55    29    30    1
    56    30    54    1
    57    30    55    1
    58    30    56    1
@<TRIPOS>SUBSTRUCTURE
     1 ZINC000225856071        1 TEMP              0 ****  ****    0 ROOT


##########                                Name:    ZINC000132775118
##########                DOCK_Rotatable_Bonds:                   5
##########                         Heavy_Atoms:                  27
##########                    Molecular_Weight:             376.499
##########                DOCK_Rotatable_Bonds:                   5
##########                       Formal_Charge:        -4.76837e-07
##########                     HBond_Acceptors:                   7
##########                        HBond_Donors:                   1
##########                         Heavy_Atoms:                  27
##########                          Grid_Score:          -31.586845
##########                     Grid_vdw_energy:          -31.951586
##########                      Grid_es_energy:            0.364741
##########           Internal_energy_repulsive:           22.016626

@<TRIPOS>MOLECULE
ZINC000132775118
 59 62 1 0 0
SMALL
USER_CHARGES


@<TRIPOS>ATOM
      1 O1        -10.7743    1.4593   54.3481 O.2     1  ZINC000132775118   -0.5200
      2 C2         -9.6310    1.7385   54.6407 C.2     1  ZINC000132775118    0.5200
      3 C3         -8.7818    2.5362   53.6847 C.3     1  ZINC000132775118    0.0300
      4 N4         -7.7592    1.6634   53.0929 N.3     1  ZINC000132775118   -0.5100
      5 C5         -8.3381    0.3746   52.6857 C.3     1  ZINC000132775118    0.0300
      6 C6         -7.3461   -0.4237   51.8899 C.2     1  ZINC000132775118    0.5300
      7 O7         -7.5566   -1.6068   51.7259 O.2     1  ZINC000132775118   -0.5500
      8 N8         -6.2399    0.1076   51.3518 N.am    1  ZINC000132775118   -0.7200
      9 C9         -5.8766    1.5029   51.5571 C.3     1  ZINC000132775118    0.1500
     10 H10        -5.1501    1.5639   52.3675 H       1  ZINC000132775118    0.0800
     11 C11        -5.2675    2.1164   50.2983 C.3     1  ZINC000132775118   -0.1300
     12 C12        -4.8517    3.5594   50.6018 C.3     1  ZINC000132775118   -0.1200
     13 C13        -6.0690    4.3715   51.0450 C.3     1  ZINC000132775118   -0.1200
     14 C14        -6.6966    3.7371   52.2903 C.3     1  ZINC000132775118   -0.1200
     15 C15        -7.1187    2.3094   51.9417 C.3     1  ZINC000132775118    0.0700
     16 H16        -7.8248    2.3333   51.1117 H       1  ZINC000132775118    0.0600
     17 N17        -9.1216    1.3404   55.8233 N.am    1  ZINC000132775118   -0.6200
     18 C18        -7.7422    1.6813   56.1971 C.3     1  ZINC000132775118    0.1100
     19 C19        -7.7580    2.3693   57.5658 C.3     1  ZINC000132775118   -0.1200
     20 C20        -8.4792    1.4725   58.5746 C.3     1  ZINC000132775118   -0.1000
     21 C21        -8.4670    2.1308   59.9302 C.2     1  ZINC000132775118    0.5300
     22 O22        -8.5139    3.3395   60.0178 O.2     1  ZINC000132775118   -0.5300
     23 N23        -8.4038    1.3763   61.0452 N.am    1  ZINC000132775118   -0.6200
     24 C24        -8.3360   -0.0919   61.0834 C.3     1  ZINC000132775118    0.1000
     25 C25        -8.3048   -0.5106   62.5685 C.3     1  ZINC000132775118   -0.1300
     26 C26        -8.9272    0.7150   63.2882 C.3     1  ZINC000132775118   -0.1300
     27 C27        -8.3846    1.8866   62.4281 C.3     1  ZINC000132775118    0.1000
     28 C28        -9.9263    1.2574   58.1254 C.3     1  ZINC000132775118   -0.1200
     29 C29        -9.9371    0.5622   56.7656 C.3     1  ZINC000132775118    0.1200
     30 H30        -9.4112    2.9460   52.8949 H       1  ZINC000132775118    0.0700
     31 H31        -8.2971    3.3510   54.2226 H       1  ZINC000132775118    0.1200
     32 H32        -8.6218   -0.1887   53.5747 H       1  ZINC000132775118    0.1300
     33 H33        -9.2245    0.5551   52.0776 H       1  ZINC000132775118    0.0700
     34 H34        -5.6639   -0.4538   50.8095 H       1  ZINC000132775118    0.4000
     35 H35        -4.3926    1.5399   49.9977 H       1  ZINC000132775118    0.0800
     36 H36        -6.0047    2.1099   49.4955 H       1  ZINC000132775118    0.0700
     37 H37        -4.1063    3.5616   51.3971 H       1  ZINC000132775118    0.0700
     38 H38        -4.4238    4.0088   49.7057 H       1  ZINC000132775118    0.0700
     39 H39        -5.7595    5.3909   51.2753 H       1  ZINC000132775118    0.0700
     40 H40        -6.8034    4.3912   50.2398 H       1  ZINC000132775118    0.0600
     41 H41        -5.9679    3.7254   53.1008 H       1  ZINC000132775118    0.0800
     42 H42        -7.5716    4.3129   52.5918 H       1  ZINC000132775118    0.0700
     43 H43        -7.1431    0.7724   56.2518 H       1  ZINC000132775118    0.0800
     44 H44        -7.3185    2.3566   55.4537 H       1  ZINC000132775118    0.0900
     45 H45        -6.7344    2.5410   57.8984 H       1  ZINC000132775118    0.0800
     46 H46        -8.2806    3.3226   57.4878 H       1  ZINC000132775118    0.0800
     47 H47        -7.9707    0.5102   58.6336 H       1  ZINC000132775118    0.0900
     48 H48        -9.2142   -0.5163   60.5970 H       1  ZINC000132775118    0.0700
     49 H49        -7.4305   -0.4344   60.5827 H       1  ZINC000132775118    0.0700
     50 H50        -8.9110   -1.4018   62.7306 H       1  ZINC000132775118    0.0800
     51 H51        -7.2799   -0.6740   62.9017 H       1  ZINC000132775118    0.0800
     52 H52       -10.0160    0.6749   63.2573 H       1  ZINC000132775118    0.0800
     53 H53        -8.5693    0.7883   64.3152 H       1  ZINC000132775118    0.0900
     54 H54        -7.3687    2.1404   62.7305 H       1  ZINC000132775118    0.0700
     55 H55        -9.0362    2.7559   62.5172 H       1  ZINC000132775118    0.0800
     56 H56       -10.4460    0.6379   58.8563 H       1  ZINC000132775118    0.0800
     57 H57       -10.4285    2.2213   58.0422 H       1  ZINC000132775118    0.0800
     58 H58       -10.9607    0.4961   56.3970 H       1  ZINC000132775118    0.1000
     59 H59        -9.5166   -0.4387   56.8637 H       1  ZINC000132775118    0.0700
@<TRIPOS>BOND
     1     1     2    2
     2     2     3    1
     3     2    17   am
     4     3     4    1
     5     3    30    1
     6     3    31    1
     7     4    15    1
     8     4     5    1
     9     5     6    1
    10     5    32    1
    11     5    33    1
    12     6     7    2
    13     6     8   am
    14     8     9    1
    15     8    34    1
    16     9    10    1
    17     9    15    1
    18     9    11    1
    19    11    12    1
    20    11    35    1
    21    11    36    1
    22    12    13    1
    23    12    37    1
    24    12    38    1
    25    13    14    1
    26    13    39    1
    27    13    40    1
    28    14    15    1
    29    14    41    1
    30    14    42    1
    31    15    16    1
    32    17    29    1
    33    17    18    1
    34    18    19    1
    35    18    43    1
    36    18    44    1
    37    19    20    1
    38    19    45    1
    39    19    46    1
    40    20    21    1
    41    20    28    1
    42    20    47    1
    43    21    22    2
    44    21    23   am
    45    23    27    1
    46    23    24    1
    47    24    25    1
    48    24    48    1
    49    24    49    1
    50    25    26    1
    51    25    50    1
    52    25    51    1
    53    26    27    1
    54    26    52    1
    55    26    53    1
    56    27    54    1
    57    27    55    1
    58    28    29    1
    59    28    56    1
    60    28    57    1
    61    29    58    1
    62    29    59    1
@<TRIPOS>SUBSTRUCTURE
     1 ZINC000132775118        1 TEMP              0 ****  ****    0 ROOT


##########                                Name:    ZINC001490207225
##########                DOCK_Rotatable_Bonds:                   7
##########                         Heavy_Atoms:                  24
##########                    Molecular_Weight:             334.378
##########                DOCK_Rotatable_Bonds:                   7
##########                       Formal_Charge:           -0.010001
##########                     HBond_Acceptors:                   9
##########                        HBond_Donors:                   3
##########                         Heavy_Atoms:                  24
##########                          Grid_Score:          -31.584019
##########                     Grid_vdw_energy:          -29.561228
##########                      Grid_es_energy:           -2.022791
##########           Internal_energy_repulsive:            9.322306

@<TRIPOS>MOLECULE
ZINC001490207225
 46 48 1 0 0
SMALL
USER_CHARGES


@<TRIPOS>ATOM
      1 C1         -7.5689    3.1926   50.7599 C.3     1  ZINC001490207225    0.0900
      2 N2         -6.2365    3.2044   51.3689 N.pl3   1  ZINC001490207225   -0.3600
      3 C3         -5.0778    3.3916   50.7172 C.2     1  ZINC001490207225    0.1300
      4 C4         -4.0635    3.3307   51.6517 C.2     1  ZINC001490207225   -0.3000
      5 C5         -2.6208    3.4823   51.3887 C.2     1  ZINC001490207225    0.6200
      6 O6         -1.9041    4.0107   52.2168 O.2     1  ZINC001490207225   -0.5400
      7 N7         -2.0964    3.0353   50.2304 N.am    1  ZINC001490207225   -0.6200
      8 C8         -2.8236    2.3832   49.1291 C.3     1  ZINC001490207225    0.1100
      9 C9         -1.8356    1.4018   48.4773 C.3     1  ZINC001490207225   -0.1100
     10 H10        -2.0343    0.3693   48.7647 H       1  ZINC001490207225    0.1000
     11 C11        -1.8691    1.5945   46.9466 C.3     1  ZINC001490207225    0.1000
     12 N12        -0.4468    1.5754   46.5338 N.am    1  ZINC001490207225   -0.6200
     13 C13         0.0891    0.9982   45.4402 C.2     1  ZINC001490207225    0.5300
     14 O14         1.2832    1.0699   45.2402 O.2     1  ZINC001490207225   -0.5300
     15 C15        -0.7952    0.2635   44.4660 C.3     1  ZINC001490207225    0.1200
     16 N16        -0.0960    0.1160   43.1870 N.am    1  ZINC001490207225   -0.7400
     17 C17        -0.5612   -0.7446   42.2600 C.2     1  ZINC001490207225    0.7100
     18 N18         0.0811   -0.8792   41.0829 N.am    1  ZINC001490207225   -0.8600
     19 O19        -1.5604   -1.3996   42.4856 O.2     1  ZINC001490207225   -0.5900
     20 C20         0.2529    2.3347   47.5957 C.3     1  ZINC001490207225    0.1100
     21 C21        -0.4303    1.8758   48.9306 C.3     1  ZINC001490207225   -0.0800
     22 C22         0.3759    0.7893   49.6453 C.3     1  ZINC001490207225   -0.1300
     23 C23        -0.6856    3.1096   49.8167 C.3     1  ZINC001490207225    0.1000
     24 C24        -4.6670    3.0961   52.9075 C.2     1  ZINC001490207225    0.0700
     25 N25        -5.9575    3.0285   52.7288 N.2     1  ZINC001490207225   -0.2900
     26 H26        -7.9756    4.2038   50.7561 H       1  ZINC001490207225    0.0800
     27 H27        -7.4971    2.8260   49.7359 H       1  ZINC001490207225    0.0900
     28 H28        -8.2252    2.5391   51.3346 H       1  ZINC001490207225    0.1000
     29 H29        -4.9605    3.5589   49.6566 H       1  ZINC001490207225    0.1900
     30 H30        -3.6859    1.8422   49.5189 H       1  ZINC001490207225    0.0900
     31 H31        -3.1462    3.1278   48.4013 H       1  ZINC001490207225    0.0800
     32 H32        -2.4129    0.7773   46.4728 H       1  ZINC001490207225    0.0900
     33 H33        -2.3249    2.5519   46.6942 H       1  ZINC001490207225    0.0900
     34 H34        -1.0350   -0.7221   44.8648 H       1  ZINC001490207225    0.1000
     35 H35        -1.7155    0.8277   44.3139 H       1  ZINC001490207225    0.1000
     36 H36         0.7019    0.6376   43.0075 H       1  ZINC001490207225    0.4100
     37 H37        -0.2545   -1.4978   40.4152 H       1  ZINC001490207225    0.4000
     38 H38         0.8789   -0.3576   40.9033 H       1  ZINC001490207225    0.4200
     39 H39         1.3117    2.0767   47.6123 H       1  ZINC001490207225    0.0900
     40 H40         0.1246    3.4064   47.4436 H       1  ZINC001490207225    0.0800
     41 H41         1.3616    1.1777   49.9015 H       1  ZINC001490207225    0.0700
     42 H42        -0.1445    0.4899   50.5550 H       1  ZINC001490207225    0.0600
     43 H43         0.4848   -0.0735   48.9883 H       1  ZINC001490207225    0.0600
     44 H44        -0.5272    4.0221   49.2421 H       1  ZINC001490207225    0.0800
     45 H45        -0.0230    3.0923   50.6821 H       1  ZINC001490207225    0.0900
     46 H46        -4.1508    2.9950   53.8507 H       1  ZINC001490207225    0.2000
@<TRIPOS>BOND
     1     1     2    1
     2     1    26    1
     3     1    27    1
     4     1    28    1
     5     2    25    1
     6     2     3    1
     7     3     4    2
     8     3    29    1
     9     4     5    1
    10     4    24    1
    11     5     6    2
    12     5     7   am
    13     7    23    1
    14     7     8    1
    15     8     9    1
    16     8    30    1
    17     8    31    1
    18     9    10    1
    19     9    21    1
    20     9    11    1
    21    11    12    1
    22    11    32    1
    23    11    33    1
    24    12    13   am
    25    12    20    1
    26    13    14    2
    27    13    15    1
    28    15    16    1
    29    15    34    1
    30    15    35    1
    31    16    17   am
    32    16    36    1
    33    17    18   am
    34    17    19    2
    35    18    37    1
    36    18    38    1
    37    20    21    1
    38    20    39    1
    39    20    40    1
    40    21    22    1
    41    21    23    1
    42    22    41    1
    43    22    42    1
    44    22    43    1
    45    23    44    1
    46    23    45    1
    47    24    25    2
    48    24    46    1
@<TRIPOS>SUBSTRUCTURE
     1 ZINC001490207225        1 TEMP              0 ****  ****    0 ROOT


##########                                Name:    ZINC000444542200
##########                DOCK_Rotatable_Bonds:                   8
##########                         Heavy_Atoms:                  28
##########                    Molecular_Weight:             404.337
##########                DOCK_Rotatable_Bonds:                   8
##########                       Formal_Charge:           0.0200001
##########                     HBond_Acceptors:                  10
##########                        HBond_Donors:                   1
##########                         Heavy_Atoms:                  28
##########                          Grid_Score:          -31.581301
##########                     Grid_vdw_energy:          -30.549158
##########                      Grid_es_energy:           -1.032143
##########           Internal_energy_repulsive:           26.210226

@<TRIPOS>MOLECULE
ZINC000444542200
 45 46 1 0 0
SMALL
USER_CHARGES


@<TRIPOS>ATOM
      1 C1         -8.7817    1.3704   53.0739 C.3     1  ZINC000444542200    0.0300
      2 O2         -7.3929    1.2164   52.7747 O.3     1  ZINC000444542200   -0.3100
      3 C3         -6.7984    2.2165   52.0724 C.ar    1  ZINC000444542200    0.1800
      4 C4         -5.4443    2.1497   51.7823 C.ar    1  ZINC000444542200   -0.1700
      5 C5         -4.8373    3.1712   51.0646 C.ar    1  ZINC000444542200    0.2300
      6 N6         -3.4708    3.1041   50.7710 N.am    1  ZINC000444542200   -0.5800
      7 C7         -2.5874    4.2139   51.1375 C.3     1  ZINC000444542200    0.0700
      8 C8         -2.9672    2.0184   50.1512 C.2     1  ZINC000444542200    0.7100
      9 O9         -3.7003    1.0972   49.8472 O.2     1  ZINC000444542200   -0.5500
     10 N10        -1.6511    1.9538   49.8685 N.am    1  ZINC000444542200   -0.7300
     11 C11        -1.1040    0.7744   49.1930 C.3     1  ZINC000444542200    0.1700
     12 H12        -1.5435   -0.1263   49.6217 H       1  ZINC000444542200    0.1500
     13 C13        -1.4292    0.8414   47.7231 C.ar    1  ZINC000444542200   -0.1300
     14 C14        -1.7272    2.0566   47.1359 C.ar    1  ZINC000444542200   -0.0800
     15 C15        -2.0258    2.1197   45.7875 C.ar    1  ZINC000444542200   -0.0900
     16 C16        -2.0268    0.9678   45.0237 C.ar    1  ZINC000444542200   -0.1100
     17 C17        -1.7288   -0.2507   45.6087 C.ar    1  ZINC000444542200    0.0800
     18 F18        -1.7296   -1.3771   44.8627 F       1  ZINC000444542200   -0.1200
     19 C19        -1.4238   -0.3132   46.9598 C.ar    1  ZINC000444542200    0.1000
     20 F20        -1.1326   -1.5014   47.5330 F       1  ZINC000444542200   -0.1100
     21 C21         0.4143    0.7391   49.3784 C.3     1  ZINC000444542200    0.4400
     22 F22         0.7175    0.2392   50.6494 F       1  ZINC000444542200   -0.1600
     23 F23         0.9839   -0.0877   48.4042 F       1  ZINC000444542200   -0.1700
     24 F24         0.9299    2.0333   49.2512 F       1  ZINC000444542200   -0.1800
     25 C25        -5.5867    4.2589   50.6379 C.ar    1  ZINC000444542200   -0.1900
     26 C26        -6.9407    4.3245   50.9287 C.ar    1  ZINC000444542200    0.1800
     27 O27        -7.6744    5.3893   50.5110 O.3     1  ZINC000444542200   -0.3100
     28 C28        -9.0650    5.3881   50.8399 C.3     1  ZINC000444542200    0.0300
     29 C29        -7.5476    3.3011   51.6412 C.ar    1  ZINC000444542200   -0.2900
     30 H30        -8.9274    2.2723   53.6684 H       1  ZINC000444542200    0.0600
     31 H31        -9.3466    1.4521   52.1452 H       1  ZINC000444542200    0.0600
     32 H32        -9.1304    0.5043   53.6363 H       1  ZINC000444542200    0.1000
     33 H33        -4.8618    1.3032   52.1149 H       1  ZINC000444542200    0.1300
     34 H34        -2.1941    4.0491   52.1407 H       1  ZINC000444542200    0.0700
     35 H35        -1.7617    4.2705   50.4282 H       1  ZINC000444542200    0.0700
     36 H36        -3.1493    5.1477   51.1164 H       1  ZINC000444542200    0.0900
     37 H37        -1.0660    2.6881   50.1121 H       1  ZINC000444542200    0.4100
     38 H38        -1.7272    2.9577   47.7311 H       1  ZINC000444542200    0.1400
     39 H39        -2.2588    3.0701   45.3305 H       1  ZINC000444542200    0.1500
     40 H40        -2.2606    1.0184   43.9705 H       1  ZINC000444542200    0.1500
     41 H41        -5.1149    5.0542   50.0798 H       1  ZINC000444542200    0.1400
     42 H42        -9.1821    5.3586   51.9232 H       1  ZINC000444542200    0.0600
     43 H43        -9.5318    6.2921   50.4486 H       1  ZINC000444542200    0.1000
     44 H44        -9.5420    4.5128   50.3989 H       1  ZINC000444542200    0.0600
     45 H45        -8.6024    3.3526   51.8675 H       1  ZINC000444542200    0.1400
@<TRIPOS>BOND
     1     1     2    1
     2     1    30    1
     3     1    31    1
     4     1    32    1
     5     2     3    1
     6     3    29   ar
     7     3     4   ar
     8     4     5   ar
     9     4    33    1
    10     5     6    1
    11     5    25   ar
    12     6     7    1
    13     6     8   am
    14     7    34    1
    15     7    35    1
    16     7    36    1
    17     8     9    2
    18     8    10   am
    19    10    11    1
    20    10    37    1
    21    11    12    1
    22    11    13    1
    23    11    21    1
    24    13    19   ar
    25    13    14   ar
    26    14    15   ar
    27    14    38    1
    28    15    16   ar
    29    15    39    1
    30    16    17   ar
    31    16    40    1
    32    17    18    1
    33    17    19   ar
    34    19    20    1
    35    21    22    1
    36    21    23    1
    37    21    24    1
    38    25    26   ar
    39    25    41    1
    40    26    27    1
    41    26    29   ar
    42    27    28    1
    43    28    42    1
    44    28    43    1
    45    28    44    1
    46    29    45    1
@<TRIPOS>SUBSTRUCTURE
     1 ZINC000444542200        1 TEMP              0 ****  ****    0 ROOT


##########                                Name:    ZINC000350493047
##########                DOCK_Rotatable_Bonds:                   7
##########                         Heavy_Atoms:                  24
##########                    Molecular_Weight:             330.387
##########                DOCK_Rotatable_Bonds:                   7
##########                       Formal_Charge:          -0.0300002
##########                     HBond_Acceptors:                   7
##########                        HBond_Donors:                   3
##########                         Heavy_Atoms:                  24
##########                          Grid_Score:          -31.573740
##########                     Grid_vdw_energy:          -29.608582
##########                      Grid_es_energy:           -1.965159
##########           Internal_energy_repulsive:           32.667103

@<TRIPOS>MOLECULE
ZINC000350493047
 46 48 1 0 0
SMALL
USER_CHARGES


@<TRIPOS>ATOM
      1 C1          0.7390    1.7787   47.8132 C.3     1  <0>        -0.1600
      2 C2          0.5924    1.2343   49.2355 C.3     1  <0>         0.2600
      3 H3          1.5391    1.3415   49.7649 H       1  <0>         0.1200
      4 N4          0.2214   -0.1819   49.1805 N.am    1  <0>        -0.7400
      5 C5         -0.8493   -0.5707   48.4603 C.2     1  <0>         0.7100
      6 N6         -1.1896   -1.8738   48.4084 N.am    1  <0>        -0.8600
      7 O7         -1.5085    0.2542   47.8573 O.2     1  <0>        -0.5900
      8 C8         -0.4792    2.0064   49.9611 C.2     1  <0>         0.1700
      9 N9         -0.2887    2.9902   50.7898 N.2     1  <0>        -0.3800
     10 O10        -1.3492    3.4046   51.2081 O.3     1  <0>         0.0900
     11 C11        -2.3553    2.6998   50.6672 C.2     1  <0>         0.2400
     12 C12        -3.7984    2.8888   50.9163 C.ar    1  <0>        -0.0800
     13 C13        -4.7237    1.9815   50.3950 C.ar    1  <0>        -0.0200
     14 C14        -6.0693    2.1614   50.6296 C.ar    1  <0>        -0.2200
     15 C15        -6.5064    3.2438   51.3833 C.ar    1  <0>         0.1700
     16 O16        -7.8333    3.4177   51.6120 O.3     1  <0>        -0.3000
     17 C17        -8.6367    3.8158   50.4993 C.3     1  <0>         0.0800
     18 C18       -10.1152    3.7434   50.8860 C.3     1  <0>        -0.1500
     19 C19       -10.9754    4.1697   49.6946 C.3     1  <0>        -0.1200
     20 C20       -10.6218    5.6042   49.2975 C.3     1  <0>        -0.1300
     21 C21        -9.1432    5.6767   48.9108 C.3     1  <0>        -0.1200
     22 C22        -8.2830    5.2504   50.1022 C.3     1  <0>        -0.1200
     23 C23        -5.5891    4.1482   51.9040 C.ar    1  <0>        -0.1600
     24 C24        -4.2414    3.9722   51.6788 C.ar    1  <0>        -0.0300
     25 N25        -1.8028    1.8067   49.8642 N.2     1  <0>        -0.4700
     26 H26        -0.2078    1.6714   47.2838 H       1  <0>         0.0600
     27 H27         1.0149    2.8324   47.8541 H       1  <0>         0.0700
     28 H28         1.5139    1.2202   47.2884 H       1  <0>         0.0800
     29 H29         0.7466   -0.8399   49.6624 H       1  <0>         0.4000
     30 H30        -1.9596   -2.1535   47.8890 H       1  <0>         0.4000
     31 H31        -0.6646   -2.5318   48.8903 H       1  <0>         0.4200
     32 H32        -4.3848    1.1404   49.8084 H       1  <0>         0.1400
     33 H33        -6.7854    1.4604   50.2269 H       1  <0>         0.1400
     34 H34        -8.4481    3.1489   49.6579 H       1  <0>         0.0800
     35 H35       -10.3672    2.7214   51.1689 H       1  <0>         0.0700
     36 H36       -10.3038    4.4103   51.7273 H       1  <0>         0.0800
     37 H37       -10.7868    3.5028   48.8533 H       1  <0>         0.0600
     38 H38       -12.0288    4.1181   49.9701 H       1  <0>         0.0700
     39 H39       -11.2346    5.9079   48.4488 H       1  <0>         0.0700
     40 H40       -10.8103    6.2712   50.1388 H       1  <0>         0.0700
     41 H41        -8.9547    5.0097   48.0695 H       1  <0>         0.0700
     42 H42        -8.8913    6.6987   48.6280 H       1  <0>         0.0700
     43 H43        -8.4716    5.9173   50.9435 H       1  <0>         0.0800
     44 H44        -7.2297    5.3020   49.8266 H       1  <0>         0.0700
     45 H45        -5.9328    4.9880   52.4897 H       1  <0>         0.1400
     46 H46        -3.5290    4.6754   52.0842 H       1  <0>         0.1400
@<TRIPOS>BOND
     1     1     2    1
     2     1    26    1
     3     1    27    1
     4     1    28    1
     5     2     3    1
     6     2     4    1
     7     2     8    1
     8     4     5   am
     9     4    29    1
    10     5     6   am
    11     5     7    2
    12     6    30    1
    13     6    31    1
    14     8    25    1
    15     8     9    2
    16     9    10    1
    17    10    11    1
    18    11    12    1
    19    11    25    2
    20    12    24   ar
    21    12    13   ar
    22    13    14   ar
    23    13    32    1
    24    14    15   ar
    25    14    33    1
    26    15    16    1
    27    15    23   ar
    28    16    17    1
    29    17    22    1
    30    17    18    1
    31    17    34    1
    32    18    19    1
    33    18    35    1
    34    18    36    1
    35    19    20    1
    36    19    37    1
    37    19    38    1
    38    20    21    1
    39    20    39    1
    40    20    40    1
    41    21    22    1
    42    21    41    1
    43    21    42    1
    44    22    43    1
    45    22    44    1
    46    23    24   ar
    47    23    45    1
    48    24    46    1
@<TRIPOS>SUBSTRUCTURE
     1 <0>         1 TEMP              0 ****  ****    0 ROOT


##########                                Name:    ZINC000496437542
##########                DOCK_Rotatable_Bonds:                   7
##########                         Heavy_Atoms:                  24
##########                    Molecular_Weight:             338.447
##########                DOCK_Rotatable_Bonds:                   7
##########                       Formal_Charge:           0.0400002
##########                     HBond_Acceptors:                   6
##########                        HBond_Donors:                   1
##########                         Heavy_Atoms:                  24
##########                          Grid_Score:          -31.572098
##########                     Grid_vdw_energy:          -29.960535
##########                      Grid_es_energy:           -1.611563
##########           Internal_energy_repulsive:           16.418100

@<TRIPOS>MOLECULE
ZINC000496437542
 54 55 1 0 0
SMALL
USER_CHARGES


@<TRIPOS>ATOM
      1 C1         -9.6397    0.0254   55.4161 C.3     1  ZINC000496437542   -0.1800
      2 C2         -9.1350    0.3561   54.0101 C.3     1  ZINC000496437542    0.1400
      3 C3         -9.4476   -0.8089   53.0689 C.3     1  ZINC000496437542   -0.1800
      4 C4         -9.8298    1.6216   53.5035 C.3     1  ZINC000496437542   -0.1400
      5 O5         -7.7001    0.5746   54.0498 O.3     1  ZINC000496437542   -0.3600
      6 C6         -7.1000    0.9067   52.8913 C.2     1  ZINC000496437542    0.6600
      7 O7         -6.8808    0.0535   52.0543 O.2     1  ZINC000496437542   -0.5600
      8 N8         -6.7424    2.1853   52.6599 N.am    1  ZINC000496437542   -0.6000
      9 C9         -6.9975    3.2357   53.6583 C.3     1  ZINC000496437542    0.0800
     10 C10        -5.6950    4.0106   53.8886 C.3     1  ZINC000496437542    0.0500
     11 O11        -5.1765    4.4445   52.6290 O.3     1  ZINC000496437542   -0.3700
     12 C12        -4.8267    3.3793   51.7418 C.3     1  ZINC000496437542    0.0700
     13 H13        -4.0963    2.7293   52.2235 H       1  ZINC000496437542    0.0700
     14 C14        -4.2275    3.9588   50.4589 C.3     1  ZINC000496437542    0.1300
     15 N15        -2.9345    3.3234   50.1934 N.am    1  ZINC000496437542   -0.7200
     16 C16        -2.8324    2.3756   49.2405 C.2     1  ZINC000496437542    0.5600
     17 O17        -3.8133    2.0489   48.6002 O.2     1  ZINC000496437542   -0.5400
     18 C18        -1.5344    1.7363   48.9751 C.2     1  ZINC000496437542   -0.1900
     19 C19        -1.2472    0.5805   49.5339 C.2     1  ZINC000496437542   -0.0600
     20 C20         0.0859   -0.0863   49.2679 C.3     1  ZINC000496437542   -0.1000
     21 C21         0.0906   -0.6102   47.8301 C.3     1  ZINC000496437542   -0.1100
     22 C22         0.5215    0.4761   46.8616 C.3     1  ZINC000496437542   -0.1200
     23 C23        -0.4650    1.6241   46.7490 C.3     1  ZINC000496437542   -0.1200
     24 C24        -0.5374    2.4085   48.0550 C.3     1  ZINC000496437542   -0.0800
     25 C25        -6.0797    2.5712   51.4040 C.3     1  ZINC000496437542    0.1000
     26 H26        -9.1448   -0.8762   55.7771 H       1  ZINC000496437542    0.0900
     27 H27        -9.4170    0.8553   56.0866 H       1  ZINC000496437542    0.0600
     28 H28       -10.7169   -0.1386   55.3863 H       1  ZINC000496437542    0.0700
     29 H29       -10.5248   -0.9729   53.0390 H       1  ZINC000496437542    0.0700
     30 H30        -9.0882   -0.5733   52.0672 H       1  ZINC000496437542    0.0600
     31 H31        -8.9527   -1.7105   53.4298 H       1  ZINC000496437542    0.0900
     32 H32        -9.6070    2.4516   54.1740 H       1  ZINC000496437542    0.0700
     33 H33        -9.4703    1.8572   52.5018 H       1  ZINC000496437542    0.0700
     34 H34       -10.9070    1.4576   53.4737 H       1  ZINC000496437542    0.0800
     35 H35        -7.7676    3.9134   53.2897 H       1  ZINC000496437542    0.0800
     36 H36        -7.3247    2.7816   54.5937 H       1  ZINC000496437542    0.1000
     37 H37        -5.8936    4.8776   54.5187 H       1  ZINC000496437542    0.1100
     38 H38        -4.9677    3.3629   54.3781 H       1  ZINC000496437542    0.0600
     39 H39        -4.9033    3.7699   49.6246 H       1  ZINC000496437542    0.0900
     40 H40        -4.0870    5.0333   50.5765 H       1  ZINC000496437542    0.0800
     41 H41        -2.1518    3.5847   50.7032 H       1  ZINC000496437542    0.4000
     42 H42        -1.9655    0.1051   50.1855 H       1  ZINC000496437542    0.1300
     43 H43         0.8897    0.6388   49.3959 H       1  ZINC000496437542    0.0800
     44 H44         0.2247   -0.9163   49.9605 H       1  ZINC000496437542    0.0800
     45 H45         0.7811   -1.4504   47.7569 H       1  ZINC000496437542    0.0700
     46 H46        -0.9123   -0.9473   47.5679 H       1  ZINC000496437542    0.0700
     47 H47         1.4819    0.8737   47.1898 H       1  ZINC000496437542    0.0600
     48 H48         0.6515    0.0312   45.8752 H       1  ZINC000496437542    0.0600
     49 H49        -0.1492    2.2909   45.9466 H       1  ZINC000496437542    0.0700
     50 H50        -1.4528    1.2267   46.5161 H       1  ZINC000496437542    0.0600
     51 H51        -0.8592    3.4298   47.8512 H       1  ZINC000496437542    0.0700
     52 H52         0.4434    2.4189   48.5306 H       1  ZINC000496437542    0.0800
     53 H53        -5.8007    1.6780   50.8449 H       1  ZINC000496437542    0.1100
     54 H54        -6.7598    3.1802   50.8085 H       1  ZINC000496437542    0.0900
@<TRIPOS>BOND
     1     1     2    1
     2     1    26    1
     3     1    27    1
     4     1    28    1
     5     2     3    1
     6     2     4    1
     7     2     5    1
     8     3    29    1
     9     3    30    1
    10     3    31    1
    11     4    32    1
    12     4    33    1
    13     4    34    1
    14     5     6    1
    15     6     7    2
    16     6     8   am
    17     8    25    1
    18     8     9    1
    19     9    10    1
    20     9    35    1
    21     9    36    1
    22    10    11    1
    23    10    37    1
    24    10    38    1
    25    11    12    1
    26    12    13    1
    27    12    14    1
    28    12    25    1
    29    14    15    1
    30    14    39    1
    31    14    40    1
    32    15    16   am
    33    15    41    1
    34    16    17    2
    35    16    18    1
    36    18    24    1
    37    18    19    2
    38    19    20    1
    39    19    42    1
    40    20    21    1
    41    20    43    1
    42    20    44    1
    43    21    22    1
    44    21    45    1
    45    21    46    1
    46    22    23    1
    47    22    47    1
    48    22    48    1
    49    23    24    1
    50    23    49    1
    51    23    50    1
    52    24    51    1
    53    24    52    1
    54    25    53    1
    55    25    54    1
@<TRIPOS>SUBSTRUCTURE
     1 ZINC000496437542        1 TEMP              0 ****  ****    0 ROOT


##########                                Name:    ZINC000190927708
##########                DOCK_Rotatable_Bonds:                  10
##########                         Heavy_Atoms:                  26
##########                    Molecular_Weight:             358.437
##########                DOCK_Rotatable_Bonds:                  10
##########                       Formal_Charge:           0.0499998
##########                     HBond_Acceptors:                   6
##########                        HBond_Donors:                   1
##########                         Heavy_Atoms:                  26
##########                          Grid_Score:          -31.570127
##########                     Grid_vdw_energy:          -29.876335
##########                      Grid_es_energy:           -1.693792
##########           Internal_energy_repulsive:           27.636126

@<TRIPOS>MOLECULE
ZINC000190927708
 52 53 1 0 0
SMALL
USER_CHARGES


@<TRIPOS>ATOM
      1 C1         -0.1061   -1.2502   48.1974 C.3     1  ZINC000190927708   -0.1500
      2 C2          1.2243   -0.6687   47.7148 C.3     1  ZINC000190927708   -0.1500
      3 C3          1.5590    0.5828   48.5288 C.3     1  ZINC000190927708    0.1000
      4 N4          0.8881    1.7434   47.9381 N.am    1  ZINC000190927708   -0.5900
      5 C5         -0.0947    2.3703   48.6149 C.2     1  ZINC000190927708    0.5300
      6 O6         -0.6491    3.3320   48.1266 O.2     1  ZINC000190927708   -0.5300
      7 C7         -0.5043    1.8762   49.9783 C.3     1  ZINC000190927708   -0.0800
      8 C8         -1.7754    2.5663   50.4018 C.2     1  ZINC000190927708   -0.1700
      9 C9         -2.9716    2.1159   49.9491 C.2     1  ZINC000190927708    0.0000
     10 C10        -4.1878    2.8080   50.3795 C.ar    1  ZINC000190927708   -0.1300
     11 C11        -5.4500    2.3893   49.9471 C.ar    1  ZINC000190927708   -0.0500
     12 C12        -6.5658    3.0563   50.3679 C.ar    1  ZINC000190927708   -0.1500
     13 C13        -6.4578    4.1458   51.2208 C.ar    1  ZINC000190927708   -0.0600
     14 C14        -5.2240    4.5763   51.6595 C.ar    1  ZINC000190927708   -0.1600
     15 C15        -4.0742    3.9128   51.2448 C.ar    1  ZINC000190927708    0.1900
     16 N16        -2.8274    4.3214   51.6683 N.am    1  ZINC000190927708   -0.6300
     17 C17        -1.7166    3.6754   51.2725 C.2     1  ZINC000190927708    0.5500
     18 O18        -0.6308    4.0645   51.6667 O.2     1  ZINC000190927708   -0.5300
     19 C19         1.2851    2.2227   46.6119 C.3     1  ZINC000190927708    0.1500
     20 H20         2.0624    1.5735   46.2086 H       1  ZINC000190927708    0.1400
     21 C21         1.8216    3.6510   46.7254 C.3     1  ZINC000190927708   -0.1300
     22 C22         2.9927    3.8344   45.7580 C.3     1  ZINC000190927708   -0.1500
     23 C23         0.0904    2.2063   45.6934 C.2     1  ZINC000190927708    0.4500
     24 O24         0.0082    3.0099   44.7949 O.2     1  ZINC000190927708   -0.5000
     25 O25        -0.8821    1.2989   45.8735 O.3     1  ZINC000190927708   -0.3500
     26 C26        -1.8883    1.1955   44.8317 C.3     1  ZINC000190927708    0.0600
     27 C27        -1.3639    0.3061   43.7026 C.3     1  ZINC000190927708   -0.1500
     28 H28        -0.8952   -0.5098   48.0665 H       1  ZINC000190927708    0.0600
     29 H29        -0.3445   -2.1418   47.6176 H       1  ZINC000190927708    0.0600
     30 H30        -0.0263   -1.5134   49.2522 H       1  ZINC000190927708    0.0600
     31 H31         2.0134   -1.4091   47.8459 H       1  ZINC000190927708    0.0800
     32 H32         1.1445   -0.4055   46.6601 H       1  ZINC000190927708    0.0700
     33 H33         1.2188    0.4501   49.5558 H       1  ZINC000190927708    0.0900
     34 H34         2.6371    0.7437   48.5211 H       1  ZINC000190927708    0.0900
     35 H35        -0.6708    0.7997   49.9398 H       1  ZINC000190927708    0.1100
     36 H36         0.2853    2.0961   50.6969 H       1  ZINC000190927708    0.1200
     37 H37        -3.0259    1.2655   49.2856 H       1  ZINC000190927708    0.1400
     38 H38        -5.5425    1.5426   49.2831 H       1  ZINC000190927708    0.1400
     39 H39        -7.5406    2.7329   50.0334 H       1  ZINC000190927708    0.1300
     40 H40        -7.3498    4.6620   51.5440 H       1  ZINC000190927708    0.1300
     41 H41        -5.1505    5.4252   52.3231 H       1  ZINC000190927708    0.1300
     42 H42        -2.7508    5.0834   52.2637 H       1  ZINC000190927708    0.4200
     43 H43         1.0300    4.3574   46.4757 H       1  ZINC000190927708    0.0900
     44 H44         2.1612    3.8316   47.7453 H       1  ZINC000190927708    0.0800
     45 H45         3.3750    4.8519   45.8389 H       1  ZINC000190927708    0.0600
     46 H46         3.7843    3.1279   46.0078 H       1  ZINC000190927708    0.0600
     47 H47         2.6531    3.6537   44.7381 H       1  ZINC000190927708    0.0600
     48 H48        -2.7969    0.7586   45.2463 H       1  ZINC000190927708    0.0700
     49 H49        -2.1088    2.1884   44.4397 H       1  ZINC000190927708    0.0700
     50 H50        -0.4554    0.7430   43.2881 H       1  ZINC000190927708    0.0700
     51 H51        -1.1435   -0.6868   44.0947 H       1  ZINC000190927708    0.0700
     52 H52        -2.1193    0.2285   42.9206 H       1  ZINC000190927708    0.0800
@<TRIPOS>BOND
     1     1     2    1
     2     1    28    1
     3     1    29    1
     4     1    30    1
     5     2     3    1
     6     2    31    1
     7     2    32    1
     8     3     4    1
     9     3    33    1
    10     3    34    1
    11     4     5   am
    12     4    19    1
    13     5     6    2
    14     5     7    1
    15     7     8    1
    16     7    35    1
    17     7    36    1
    18     8    17    1
    19     8     9    2
    20     9    10    1
    21     9    37    1
    22    10    15   ar
    23    10    11   ar
    24    11    12   ar
    25    11    38    1
    26    12    13   ar
    27    12    39    1
    28    13    14   ar
    29    13    40    1
    30    14    15   ar
    31    14    41    1
    32    15    16    1
    33    16    17   am
    34    16    42    1
    35    17    18    2
    36    19    20    1
    37    19    21    1
    38    19    23    1
    39    21    22    1
    40    21    43    1
    41    21    44    1
    42    22    45    1
    43    22    46    1
    44    22    47    1
    45    23    24    2
    46    23    25    1
    47    25    26    1
    48    26    27    1
    49    26    48    1
    50    26    49    1
    51    27    50    1
    52    27    51    1
    53    27    52    1
@<TRIPOS>SUBSTRUCTURE
     1 ZINC000190927708        1 TEMP              0 ****  ****    0 ROOT


##########                                Name:    ZINC001176298561
##########                DOCK_Rotatable_Bonds:                   6
##########                         Heavy_Atoms:                  23
##########                    Molecular_Weight:             337.781
##########                DOCK_Rotatable_Bonds:                   6
##########                       Formal_Charge:          -0.0100003
##########                     HBond_Acceptors:                   7
##########                        HBond_Donors:                   2
##########                         Heavy_Atoms:                  23
##########                          Grid_Score:          -31.534573
##########                     Grid_vdw_energy:          -30.605888
##########                      Grid_es_energy:           -0.928684
##########           Internal_energy_repulsive:           17.431349

@<TRIPOS>MOLECULE
ZINC001176298561
 40 41 1 0 0
SMALL
USER_CHARGES


@<TRIPOS>ATOM
      1 C1         -0.8739   -0.3664   43.1785 C.3     1  ZINC001176298561   -0.1700
      2 C2         -1.7248   -0.6941   44.4071 C.3     1  ZINC001176298561    0.1100
      3 N3         -1.3971    0.2363   45.4902 N.am    1  ZINC001176298561   -0.6100
      4 C4         -1.1348    1.6461   45.1906 C.3     1  ZINC001176298561    0.0900
      5 C5          0.3754    1.8775   45.1079 C.3     1  ZINC001176298561   -0.1800
      6 C6         -1.3371   -0.2047   46.7623 C.2     1  ZINC001176298561    0.5600
      7 O7         -1.5549   -1.3744   47.0110 O.2     1  ZINC001176298561   -0.5300
      8 C8         -1.0064    0.7344   47.8556 C.ar    1  ZINC001176298561   -0.0600
      9 C9          0.2386    0.6676   48.4828 C.ar    1  ZINC001176298561   -0.1900
     10 C10         0.5455    1.5468   49.5050 C.ar    1  ZINC001176298561    0.1400
     11 F11         1.7512    1.4811   50.1109 F       1  ZINC001176298561   -0.1300
     12 C12        -0.3791    2.4944   49.9087 C.ar    1  ZINC001176298561   -0.1800
     13 C13        -1.6213    2.5675   49.2890 C.ar    1  ZINC001176298561    0.2400
     14 N14        -2.5510    3.5257   49.6994 N.pl3   1  ZINC001176298561   -0.6700
     15 C15        -3.3285    3.3023   50.8421 C.2     1  ZINC001176298561    0.0400
     16 C16        -2.9563    3.8329   52.0471 C.2     1  ZINC001176298561   -0.0300
     17 C17        -3.7536    3.5942   53.1766 C.2     1  ZINC001176298561   -0.1300
     18 Cl18       -3.2997    4.2581   54.7150 Cl      1  ZINC001176298561   -0.0400
     19 C19        -4.8765    2.8468   53.0671 C.2     1  ZINC001176298561    0.1400
     20 N20        -5.2478    2.3184   51.8693 N.am    1  ZINC001176298561   -0.6000
     21 C21        -4.5091    2.5314   50.7636 C.2     1  ZINC001176298561    0.5100
     22 O22        -4.8551    2.0511   49.6960 O.2     1  ZINC001176298561   -0.5200
     23 C23        -1.9354    1.6933   48.2591 C.ar    1  ZINC001176298561   -0.1300
     24 H24        -1.1178   -1.0586   42.3726 H       1  ZINC001176298561    0.0700
     25 H25        -1.0798    0.6541   42.8556 H       1  ZINC001176298561    0.0600
     26 H26         0.1820   -0.4612   43.4319 H       1  ZINC001176298561    0.0600
     27 H27        -2.7807   -0.5992   44.1536 H       1  ZINC001176298561    0.0800
     28 H28        -1.5189   -1.7146   44.7300 H       1  ZINC001176298561    0.0900
     29 H29        -1.5950    1.9069   44.2376 H       1  ZINC001176298561    0.0900
     30 H30        -1.5552    2.2696   45.9797 H       1  ZINC001176298561    0.0800
     31 H31         0.8447    1.0354   44.5992 H       1  ZINC001176298561    0.0700
     32 H32         0.5727    2.7939   44.5515 H       1  ZINC001176298561    0.0700
     33 H33         0.7848    1.9682   46.1140 H       1  ZINC001176298561    0.0600
     34 H34         0.9619   -0.0710   48.1703 H       1  ZINC001176298561    0.1500
     35 H35        -0.1348    3.1787   50.7078 H       1  ZINC001176298561    0.1300
     36 H36        -2.6580    4.3459   49.1927 H       1  ZINC001176298561    0.4200
     37 H37        -2.0591    4.4285   52.1280 H       1  ZINC001176298561    0.1500
     38 H38        -5.4851    2.6674   53.9410 H       1  ZINC001176298561    0.1800
     39 H39        -6.0559    1.7850   51.8106 H       1  ZINC001176298561    0.4300
     40 H40        -2.9001    1.7491   47.7768 H       1  ZINC001176298561    0.1400
@<TRIPOS>BOND
     1     1     2    1
     2     1    24    1
     3     1    25    1
     4     1    26    1
     5     2     3    1
     6     2    27    1
     7     2    28    1
     8     3     4    1
     9     3     6   am
    10     4     5    1
    11     4    29    1
    12     4    30    1
    13     5    31    1
    14     5    32    1
    15     5    33    1
    16     6     7    2
    17     6     8    1
    18     8    23   ar
    19     8     9   ar
    20     9    10   ar
    21     9    34    1
    22    10    11    1
    23    10    12   ar
    24    12    13   ar
    25    12    35    1
    26    13    14    1
    27    13    23   ar
    28    14    15    1
    29    14    36    1
    30    15    21    1
    31    15    16    2
    32    16    17    1
    33    16    37    1
    34    17    18    1
    35    17    19    2
    36    19    20    1
    37    19    38    1
    38    20    21   am
    39    20    39    1
    40    21    22    2
    41    23    40    1
@<TRIPOS>SUBSTRUCTURE
     1 ZINC001176298561        1 TEMP              0 ****  ****    0 ROOT


##########                                Name:    ZINC000753658424
##########                DOCK_Rotatable_Bonds:                   8
##########                         Heavy_Atoms:                  24
##########                    Molecular_Weight:             332.399
##########                DOCK_Rotatable_Bonds:                   8
##########                       Formal_Charge:        -9.16421e-07
##########                     HBond_Acceptors:                   6
##########                        HBond_Donors:                   3
##########                         Heavy_Atoms:                  24
##########                          Grid_Score:          -31.532007
##########                     Grid_vdw_energy:          -30.330076
##########                      Grid_es_energy:           -1.201931
##########           Internal_energy_repulsive:           17.616978

@<TRIPOS>MOLECULE
ZINC000753658424
 48 49 1 0 0
SMALL
USER_CHARGES


@<TRIPOS>ATOM
      1 C1          2.2956    0.4920   42.5239 C.3     1  ZINC000753658424   -0.2000
      2 C2          2.6417    1.2780   43.7623 C.2     1  ZINC000753658424    0.4400
      3 O3          3.3410    2.2659   43.6781 O.2     1  ZINC000753658424   -0.4500
      4 C4          2.1334    0.8490   45.0688 C.2     1  ZINC000753658424   -0.2500
      5 C5          2.8744    0.2934   46.1003 C.2     1  ZINC000753658424    0.1000
      6 C6          4.3566    0.0221   46.0749 C.3     1  ZINC000753658424   -0.1000
      7 N7          2.0473    0.0391   47.1248 N.pl3   1  ZINC000753658424   -0.5300
      8 C8          0.7676    0.4202   46.7828 C.2     1  ZINC000753658424   -0.0600
      9 C9         -0.4210    0.3030   47.6373 C.2     1  ZINC000753658424    0.5900
     10 O10        -1.1050   -0.7022   47.5934 O.2     1  ZINC000753658424   -0.5200
     11 N11        -0.7540    1.3090   48.4700 N.am    1  ZINC000753658424   -0.7300
     12 C12        -1.9407    1.1928   49.3213 C.3     1  ZINC000753658424    0.0900
     13 C13        -2.4933    2.5881   49.6190 C.3     1  ZINC000753658424    0.1900
     14 H14        -2.7825    3.0712   48.6857 H       1  ZINC000753658424    0.1300
     15 O15        -1.4886    3.3697   50.2685 O.3     1  ZINC000753658424   -0.5500
     16 C16        -3.6972    2.4704   50.5177 C.2     1  ZINC000753658424   -0.0600
     17 C17        -4.0733    3.3643   51.4499 C.2     1  ZINC000753658424   -0.1800
     18 C18        -5.2478    2.8579   52.0526 C.2     1  ZINC000753658424   -0.2100
     19 C19        -5.5191    1.6850   51.4526 C.2     1  ZINC000753658424    0.0000
     20 C20        -6.6836    0.7821   51.7684 C.3     1  ZINC000753658424   -0.0800
     21 O21        -4.5799    1.4582   50.5198 O.3     1  ZINC000753658424   -0.1700
     22 C22         0.7937    0.9293   45.5193 C.2     1  ZINC000753658424   -0.0100
     23 C23        -0.3819    1.4670   44.7448 C.3     1  ZINC000753658424   -0.0500
     24 C24        -1.4986    0.4213   44.7214 C.3     1  ZINC000753658424   -0.1500
     25 C25        -0.8929    2.7441   45.4146 C.3     1  ZINC000753658424   -0.1500
     26 H26         2.6930    1.0025   41.6466 H       1  ZINC000753658424    0.0800
     27 H27         2.7313   -0.5047   42.5927 H       1  ZINC000753658424    0.1000
     28 H28         1.2123    0.4098   42.4368 H       1  ZINC000753658424    0.0900
     29 H29         4.8872    0.8603   46.5263 H       1  ZINC000753658424    0.0900
     30 H30         4.5691   -0.8875   46.6366 H       1  ZINC000753658424    0.0800
     31 H31         4.6854   -0.1029   45.0432 H       1  ZINC000753658424    0.0900
     32 H32         2.3086   -0.3516   47.9734 H       1  ZINC000753658424    0.4200
     33 H33        -0.2080    2.1100   48.5058 H       1  ZINC000753658424    0.4000
     34 H34        -2.7000    0.6033   48.8074 H       1  ZINC000753658424    0.0900
     35 H35        -1.6706    0.7019   50.2561 H       1  ZINC000753658424    0.0800
     36 H36        -0.6683    3.4541   49.7635 H       1  ZINC000753658424    0.3900
     37 H37        -3.5736    4.2906   51.6920 H       1  ZINC000753658424    0.1500
     38 H38        -5.8175    3.3234   52.8432 H       1  ZINC000753658424    0.1500
     39 H39        -7.5345    1.0547   51.1440 H       1  ZINC000753658424    0.0800
     40 H40        -6.4050   -0.2529   51.5710 H       1  ZINC000753658424    0.0800
     41 H41        -6.9539    0.8917   52.8187 H       1  ZINC000753658424    0.0900
     42 H42        -0.0725    1.6910   43.7239 H       1  ZINC000753658424    0.1100
     43 H43        -1.8901    0.2855   45.7295 H       1  ZINC000753658424    0.0500
     44 H44        -2.2989    0.7592   44.0632 H       1  ZINC000753658424    0.0600
     45 H45        -1.1020   -0.5255   44.3549 H       1  ZINC000753658424    0.0600
     46 H46        -0.1245    3.5153   45.3604 H       1  ZINC000753658424    0.0500
     47 H47        -1.7907    3.0891   44.9018 H       1  ZINC000753658424    0.0600
     48 H48        -1.1275    2.5378   46.4588 H       1  ZINC000753658424    0.0600
@<TRIPOS>BOND
     1     1     2    1
     2     1    26    1
     3     1    27    1
     4     1    28    1
     5     2     3    2
     6     2     4    1
     7     4    22    1
     8     4     5    2
     9     5     6    1
    10     5     7    1
    11     6    29    1
    12     6    30    1
    13     6    31    1
    14     7     8    1
    15     7    32    1
    16     8     9    1
    17     8    22    2
    18     9    10    2
    19     9    11   am
    20    11    12    1
    21    11    33    1
    22    12    13    1
    23    12    34    1
    24    12    35    1
    25    13    14    1
    26    13    15    1
    27    13    16    1
    28    15    36    1
    29    16    21    1
    30    16    17    2
    31    17    18    1
    32    17    37    1
    33    18    19    2
    34    18    38    1
    35    19    20    1
    36    19    21    1
    37    20    39    1
    38    20    40    1
    39    20    41    1
    40    22    23    1
    41    23    24    1
    42    23    25    1
    43    23    42    1
    44    24    43    1
    45    24    44    1
    46    24    45    1
    47    25    46    1
    48    25    47    1
    49    25    48    1
@<TRIPOS>SUBSTRUCTURE
     1 ZINC000753658424        1 TEMP              0 ****  ****    0 ROOT


##########                                Name:    ZINC000952280524
##########                DOCK_Rotatable_Bonds:                   9
##########                         Heavy_Atoms:                  25
##########                    Molecular_Weight:             348.486
##########                DOCK_Rotatable_Bonds:                   9
##########                       Formal_Charge:          -0.0100004
##########                     HBond_Acceptors:                   5
##########                        HBond_Donors:                   1
##########                         Heavy_Atoms:                  25
##########                          Grid_Score:          -31.526613
##########                     Grid_vdw_energy:          -30.577953
##########                      Grid_es_energy:           -0.948660
##########           Internal_energy_repulsive:           17.050392

@<TRIPOS>MOLECULE
ZINC000952280524
 57 59 1 0 0
SMALL
USER_CHARGES


@<TRIPOS>ATOM
      1 C1         -8.7769    1.8387   59.5269 C.3     1  ZINC000952280524   -0.1800
      2 C2         -8.0425    2.3542   58.2877 C.3     1  ZINC000952280524    0.1400
      3 C3         -7.0871    3.4787   58.6921 C.3     1  ZINC000952280524   -0.1900
      4 O4         -7.2988    1.2869   57.6964 O.3     1  ZINC000952280524   -0.5500
      5 C5         -9.0598    2.8880   57.2772 C.3     1  ZINC000952280524   -0.1200
      6 C6         -9.5726    1.7506   56.4321 C.2     1  ZINC000952280524    0.5300
      7 O7        -10.4227    1.0048   56.8703 O.2     1  ZINC000952280524   -0.5100
      8 N8         -9.0865    1.5621   55.1893 N.am    1  ZINC000952280524   -0.6300
      9 C9         -9.4955    0.4975   54.2614 C.3     1  ZINC000952280524    0.1000
     10 C10        -8.6562    0.6617   52.9769 C.3     1  ZINC000952280524   -0.1300
     11 C11        -7.4217    1.4629   53.4685 C.3     1  ZINC000952280524   -0.1000
     12 H12        -6.6803    0.8018   53.9173 H       1  ZINC000952280524    0.0900
     13 C13        -6.8071    2.2775   52.3285 C.3     1  ZINC000952280524   -0.0700
     14 C14        -5.6814    3.1560   52.8789 C.3     1  ZINC000952280524   -0.1300
     15 C15        -5.0916    3.9956   51.7413 C.3     1  ZINC000952280524    0.1100
     16 N16        -4.6790    3.0965   50.6548 N.am    1  ZINC000952280524   -0.6100
     17 C17        -3.4243    3.1423   50.1648 C.2     1  ZINC000952280524    0.5500
     18 O18        -2.6214    3.9331   50.6219 O.2     1  ZINC000952280524   -0.5500
     19 C19        -3.0262    2.2357   49.0769 C.2     1  ZINC000952280524   -0.2200
     20 C20        -2.0354    1.3683   49.2633 C.2     1  ZINC000952280524   -0.0300
     21 C21        -1.6286    0.4383   48.1494 C.3     1  ZINC000952280524   -0.1500
     22 C22        -0.1316    0.2109   47.9303 C.3     1  ZINC000952280524   -0.1700
     23 C23        -0.9923   -0.8969   48.5409 C.3     1  ZINC000952280524   -0.1600
     24 C24        -5.6601    2.1462   50.1133 C.3     1  ZINC000952280524    0.1000
     25 C25        -6.2435    1.3275   51.2692 C.3     1  ZINC000952280524   -0.1300
     26 C26        -8.0609    2.3931   54.5326 C.3     1  ZINC000952280524    0.1100
     27 H27        -9.2730    2.6702   60.0275 H       1  ZINC000952280524    0.0700
     28 H28        -9.5199    1.0994   59.2277 H       1  ZINC000952280524    0.0600
     29 H29        -8.0611    1.3793   60.2086 H       1  ZINC000952280524    0.0600
     30 H30        -6.3623    3.0984   59.4119 H       1  ZINC000952280524    0.0600
     31 H31        -6.5639    3.8460   57.8092 H       1  ZINC000952280524    0.0800
     32 H32        -7.6544    4.2929   59.1431 H       1  ZINC000952280524    0.0600
     33 H33        -6.8277    1.5357   56.8894 H       1  ZINC000952280524    0.3700
     34 H34        -9.8920    3.3496   57.8088 H       1  ZINC000952280524    0.1000
     35 H35        -8.5815    3.6293   56.6371 H       1  ZINC000952280524    0.1000
     36 H36        -9.3027   -0.4778   54.7081 H       1  ZINC000952280524    0.0700
     37 H37       -10.5554    0.5972   54.0270 H       1  ZINC000952280524    0.0700
     38 H38        -8.3546   -0.3102   52.5864 H       1  ZINC000952280524    0.0800
     39 H39        -9.2079    1.2263   52.2252 H       1  ZINC000952280524    0.0800
     40 H40        -7.5736    2.9089   51.8790 H       1  ZINC000952280524    0.0800
     41 H41        -6.0790    3.8162   53.6498 H       1  ZINC000952280524    0.0800
     42 H42        -4.9028    2.5244   53.3064 H       1  ZINC000952280524    0.0700
     43 H43        -5.8446    4.6923   51.3729 H       1  ZINC000952280524    0.0700
     44 H44        -4.2262    4.5489   52.1061 H       1  ZINC000952280524    0.0900
     45 H45        -3.5383    2.2745   48.1269 H       1  ZINC000952280524    0.1300
     46 H46        -1.5223    1.3305   50.2128 H       1  ZINC000952280524    0.1300
     47 H47        -2.2704    0.4509   47.2685 H       1  ZINC000952280524    0.1200
     48 H48         0.2119    0.0739   46.9049 H       1  ZINC000952280524    0.1000
     49 H49         0.5591    0.7339   48.5917 H       1  ZINC000952280524    0.1000
     50 H50        -0.8679   -1.1027   49.6041 H       1  ZINC000952280524    0.1000
     51 H51        -1.2152   -1.7627   47.9173 H       1  ZINC000952280524    0.1000
     52 H52        -6.4595    2.6921   49.6122 H       1  ZINC000952280524    0.0700
     53 H53        -5.1698    1.4793   49.4041 H       1  ZINC000952280524    0.0900
     54 H54        -5.4596    0.7130   51.7118 H       1  ZINC000952280524    0.0700
     55 H55        -7.0411    0.6860   50.8944 H       1  ZINC000952280524    0.0800
     56 H56        -8.5168    3.2599   54.0541 H       1  ZINC000952280524    0.0700
     57 H57        -7.3121    2.7098   55.2586 H       1  ZINC000952280524    0.0800
@<TRIPOS>BOND
     1     1     2    1
     2     1    27    1
     3     1    28    1
     4     1    29    1
     5     2     3    1
     6     2     4    1
     7     2     5    1
     8     3    30    1
     9     3    31    1
    10     3    32    1
    11     4    33    1
    12     5     6    1
    13     5    34    1
    14     5    35    1
    15     6     7    2
    16     6     8   am
    17     8    26    1
    18     8     9    1
    19     9    10    1
    20     9    36    1
    21     9    37    1
    22    10    11    1
    23    10    38    1
    24    10    39    1
    25    11    12    1
    26    11    13    1
    27    11    26    1
    28    13    25    1
    29    13    14    1
    30    13    40    1
    31    14    15    1
    32    14    41    1
    33    14    42    1
    34    15    16    1
    35    15    43    1
    36    15    44    1
    37    16    17   am
    38    16    24    1
    39    17    18    2
    40    17    19    1
    41    19    20    2
    42    19    45    1
    43    20    21    1
    44    20    46    1
    45    21    23    1
    46    21    22    1
    47    21    47    1
    48    22    23    1
    49    22    48    1
    50    22    49    1
    51    23    50    1
    52    23    51    1
    53    24    25    1
    54    24    52    1
    55    24    53    1
    56    25    54    1
    57    25    55    1
    58    26    56    1
    59    26    57    1
@<TRIPOS>SUBSTRUCTURE
     1 ZINC000952280524        1 TEMP              0 ****  ****    0 ROOT


##########                                Name:    ZINC000328606936
##########                DOCK_Rotatable_Bonds:                   6
##########                         Heavy_Atoms:                  23
##########                    Molecular_Weight:             338.428
##########                DOCK_Rotatable_Bonds:                   6
##########                       Formal_Charge:           0.0100001
##########                     HBond_Acceptors:                   7
##########                        HBond_Donors:                   2
##########                         Heavy_Atoms:                  23
##########                          Grid_Score:          -31.510395
##########                     Grid_vdw_energy:          -30.188345
##########                      Grid_es_energy:           -1.322051
##########           Internal_energy_repulsive:           12.259926

@<TRIPOS>MOLECULE
ZINC000328606936
 45 47 1 0 0
SMALL
USER_CHARGES


@<TRIPOS>ATOM
      1 C1         -0.7779   -1.5342   47.4688 C.3     1  <0>        -0.0500
      2 N2         -1.4785   -0.2431   47.4823 N.4     1  <0>        -0.3500
      3 H3         -2.4334   -0.3754   47.1845 H       1  <0>         0.4200
      4 C4         -0.8052    0.6890   46.5682 C.3     1  <0>        -0.0900
      5 C5         -1.2987    0.4590   45.1630 C.2     1  <0>         0.4900
      6 O6         -1.9087   -0.5609   44.8904 O.co2   1  <0>        -0.6700
      7 O7         -1.0881    1.2928   44.2988 O.co2   1  <0>        -0.6400
      8 C8         -1.4622    0.3086   48.8438 C.3     1  <0>         0.0100
      9 H9         -1.8247   -0.4322   49.5564 H       1  <0>         0.1600
     10 C10        -2.3233    1.5880   48.9147 C.3     1  <0>         0.1000
     11 N11        -1.5875    2.4833   49.8376 N.am    1  <0>        -0.6200
     12 C12        -2.0984    3.2965   50.7832 C.2     1  <0>         0.6200
     13 O13        -1.3558    3.9761   51.4673 O.2     1  <0>        -0.5100
     14 C14        -3.5484    3.3624   50.9877 C.2     1  <0>        -0.2800
     15 C15        -4.3167    4.4763   50.8403 C.2     1  <0>        -0.0300
     16 C16        -5.6609    4.2725   51.0928 C.2     1  <0>        -0.1200
     17 C17        -5.9672    3.0019   51.4404 C.2     1  <0>        -0.1900
     18 C18        -7.3675    2.5181   51.7670 C.3     1  <0>        -0.0500
     19 C19        -8.2564    3.7335   52.0427 C.3     1  <0>        -0.1200
     20 C20        -8.0911    4.7410   50.9012 C.3     1  <0>        -0.1200
     21 C21        -6.7033    5.3785   50.9894 C.3     1  <0>        -0.0600
     22 S22        -4.5735    2.0154   51.4548 S.3     1  <0>         0.2000
     23 C23        -0.1627    2.2817   49.4855 C.3     1  <0>         0.0600
     24 C24        -0.0370    0.7634   49.2211 C.3     1  <0>         0.0800
     25 H25         0.6506    0.5781   48.3959 H       1  <0>         0.1000
     26 O26         0.4093    0.0892   50.3995 O.3     1  <0>        -0.5400
     27 H27         0.2536   -1.3913   47.7905 H       1  <0>         0.1100
     28 H28        -1.2776   -2.2258   48.1471 H       1  <0>         0.1100
     29 H29        -0.7901   -1.9435   46.4586 H       1  <0>         0.1600
     30 H30        -1.0250    1.7138   46.8672 H       1  <0>         0.1200
     31 H31         0.2713    0.5221   46.6070 H       1  <0>         0.1300
     32 H32        -2.4074    2.0448   47.9286 H       1  <0>         0.1000
     33 H33        -3.3114    1.3595   49.3140 H       1  <0>         0.1200
     34 H34        -3.9120    5.4352   50.5520 H       1  <0>         0.1500
     35 H35        -7.7669    1.9572   50.9219 H       1  <0>         0.0900
     36 H36        -7.3369    1.8798   52.6501 H       1  <0>         0.0800
     37 H37        -9.2979    3.4177   52.1024 H       1  <0>         0.0700
     38 H38        -7.9596    4.1966   52.9836 H       1  <0>         0.0700
     39 H39        -8.1968    4.2285   49.9450 H       1  <0>         0.0700
     40 H40        -8.8534    5.5155   50.9860 H       1  <0>         0.0700
     41 H41        -6.6495    6.0158   51.8720 H       1  <0>         0.0800
     42 H42        -6.5167    5.9730   50.0951 H       1  <0>         0.0800
     43 H43         0.0907    2.8468   48.5886 H       1  <0>         0.1000
     44 H44         0.4794    2.5765   50.3155 H       1  <0>         0.1000
     45 H45         0.4084   -0.8750   50.3251 H       1  <0>         0.4000
@<TRIPOS>BOND
     1     1     2    1
     2     1    27    1
     3     1    28    1
     4     1    29    1
     5     2     3    1
     6     2     4    1
     7     2     8    1
     8     4     5    1
     9     4    30    1
    10     4    31    1
    11     5     6   ar
    12     5     7   ar
    13     8     9    1
    14     8    24    1
    15     8    10    1
    16    10    11    1
    17    10    32    1
    18    10    33    1
    19    11    12   am
    20    11    23    1
    21    12    13    2
    22    12    14    1
    23    14    22    1
    24    14    15    2
    25    15    16    1
    26    15    34    1
    27    16    21    1
    28    16    17    2
    29    17    18    1
    30    17    22    1
    31    18    19    1
    32    18    35    1
    33    18    36    1
    34    19    20    1
    35    19    37    1
    36    19    38    1
    37    20    21    1
    38    20    39    1
    39    20    40    1
    40    21    41    1
    41    21    42    1
    42    23    24    1
    43    23    43    1
    44    23    44    1
    45    24    25    1
    46    24    26    1
    47    26    45    1
@<TRIPOS>SUBSTRUCTURE
     1 <0>         1 TEMP              0 ****  ****    0 ROOT


##########                                Name:    ZINC001579482641
##########                DOCK_Rotatable_Bonds:                   5
##########                         Heavy_Atoms:                  26
##########                    Molecular_Weight:             355.359
##########                DOCK_Rotatable_Bonds:                   5
##########                       Formal_Charge:                0.05
##########                     HBond_Acceptors:                  11
##########                        HBond_Donors:                   1
##########                         Heavy_Atoms:                  26
##########                          Grid_Score:          -31.486244
##########                     Grid_vdw_energy:          -29.816353
##########                      Grid_es_energy:           -1.669892
##########           Internal_energy_repulsive:           17.549784

@<TRIPOS>MOLECULE
ZINC001579482641
 43 46 1 0 0
SMALL
USER_CHARGES


@<TRIPOS>ATOM
      1 C1         -1.1637   -0.6727   42.2836 C.3     1  ZINC001579482641    0.0300
      2 O2         -0.6250   -0.2876   43.5759 O.3     1  ZINC001579482641   -0.3300
      3 C3         -1.4911    0.2257   44.4712 C.2     1  ZINC001579482641    0.5300
      4 O4         -2.6714    0.3086   44.1959 O.2     1  ZINC001579482641   -0.4900
      5 C5         -1.0054    0.6877   45.7877 C.ar    1  ZINC001579482641    0.0900
      6 C6          0.3550    0.6024   46.0889 C.ar    1  ZINC001579482641   -0.0800
      7 C7          0.8046    1.0362   47.3228 C.ar    1  ZINC001579482641   -0.1200
      8 C8         -0.1237    1.5465   48.2271 C.ar    1  ZINC001579482641    0.1100
      9 N9          0.2839    1.9936   49.4766 N.3     1  ZINC001579482641   -0.4600
     10 C10         1.0072    0.9263   50.2141 C.3     1  ZINC001579482641    0.0400
     11 C11         1.8119    1.7137   51.2785 C.3     1  ZINC001579482641   -0.1100
     12 C12         2.2404    2.9880   50.5151 C.3     1  ZINC001579482641   -0.0100
     13 H13         3.2541    2.8756   50.1306 H       1  ZINC001579482641    0.0900
     14 C14         2.1545    4.1919   51.4173 C.2     1  ZINC001579482641    0.1800
     15 N15         1.1150    4.9644   51.5795 N.2     1  ZINC001579482641   -0.2600
     16 N16         1.3938    5.8939   52.4232 N.2     1  ZINC001579482641   -0.2900
     17 C17         2.6239    5.7567   52.8376 C.2     1  ZINC001579482641    0.1500
     18 N18         3.1401    4.6697   52.2149 N.pl3   1  ZINC001579482641   -0.4800
     19 C19         4.4921    4.1263   52.3666 C.3     1  ZINC001579482641    0.0700
     20 C20         1.2389    3.1161   49.3523 C.3     1  ZINC001579482641    0.0600
     21 C21        -1.4783    1.6030   47.8575 C.ar    1  ZINC001579482641    0.2300
     22 C22        -2.4786    2.1439   48.8102 C.2     1  ZINC001579482641    0.2100
     23 N23        -2.2307    2.7192   49.9704 N.2     1  ZINC001579482641   -0.2600
     24 N24        -3.3600    3.0507   50.4953 N.pl3   1  ZINC001579482641   -0.2300
     25 N25        -4.3154    2.7039   49.7053 N.2     1  ZINC001579482641   -0.0500
     26 N26        -3.8107    2.1481   48.6565 N.2     1  ZINC001579482641   -0.2000
     27 N27        -1.8678    1.1837   46.6673 N.ar    1  ZINC001579482641   -0.4000
     28 H28        -1.6036    0.1989   41.7990 H       1  ZINC001579482641    0.0700
     29 H29        -0.3628   -1.0697   41.6598 H       1  ZINC001579482641    0.1100
     30 H30        -1.9290   -1.4364   42.4219 H       1  ZINC001579482641    0.0700
     31 H31         1.0496    0.2012   45.3656 H       1  ZINC001579482641    0.1600
     32 H32         1.8522    0.9803   47.5795 H       1  ZINC001579482641    0.1600
     33 H33         0.3038    0.2436   50.6909 H       1  ZINC001579482641    0.1000
     34 H34         1.6782    0.3849   49.5472 H       1  ZINC001579482641    0.0600
     35 H35         1.1800    1.9680   52.1295 H       1  ZINC001579482641    0.1000
     36 H36         2.6844    1.1454   51.6007 H       1  ZINC001579482641    0.0800
     37 H37         3.1344    6.3899   53.5482 H       1  ZINC001579482641    0.2200
     38 H38         4.5014    3.3955   53.1752 H       1  ZINC001579482641    0.0800
     39 H39         4.7963    3.6441   51.4376 H       1  ZINC001579482641    0.0900
     40 H40         5.1847    4.9351   52.5998 H       1  ZINC001579482641    0.0900
     41 H41         1.7654    3.0520   48.4001 H       1  ZINC001579482641    0.0600
     42 H42         0.7076    4.0651   49.4228 H       1  ZINC001579482641    0.1000
     43 H43        -3.4725    3.4920   51.3519 H       1  ZINC001579482641    0.4800
@<TRIPOS>BOND
     1     1     2    1
     2     1    28    1
     3     1    29    1
     4     1    30    1
     5     2     3    1
     6     3     4    2
     7     3     5    1
     8     5    27   ar
     9     5     6   ar
    10     6     7   ar
    11     6    31    1
    12     7     8   ar
    13     7    32    1
    14     8     9    1
    15     8    21   ar
    16     9    20    1
    17     9    10    1
    18    10    11    1
    19    10    33    1
    20    10    34    1
    21    11    12    1
    22    11    35    1
    23    11    36    1
    24    12    13    1
    25    12    14    1
    26    12    20    1
    27    14    18    1
    28    14    15    2
    29    15    16    1
    30    16    17    2
    31    17    18    1
    32    17    37    1
    33    18    19    1
    34    19    38    1
    35    19    39    1
    36    19    40    1
    37    20    41    1
    38    20    42    1
    39    21    22    1
    40    21    27   ar
    41    22    26    1
    42    22    23    2
    43    23    24    1
    44    24    25    1
    45    24    43    1
    46    25    26    2
@<TRIPOS>SUBSTRUCTURE
     1 ZINC001579482641        1 TEMP              0 ****  ****    0 ROOT


##########                                Name:    ZINC001300804061
##########                DOCK_Rotatable_Bonds:                   5
##########                         Heavy_Atoms:                  27
##########                    Molecular_Weight:              390.55
##########                DOCK_Rotatable_Bonds:                   5
##########                       Formal_Charge:                0.01
##########                     HBond_Acceptors:                   7
##########                        HBond_Donors:                   0
##########                         Heavy_Atoms:                  27
##########                          Grid_Score:          -31.482134
##########                     Grid_vdw_energy:          -31.312435
##########                      Grid_es_energy:           -0.169700
##########           Internal_energy_repulsive:           13.633586

@<TRIPOS>MOLECULE
ZINC001300804061
 57 60 1 0 0
SMALL
USER_CHARGES


@<TRIPOS>ATOM
      1 C1         -3.9877    4.4773   54.3504 C.3     1  ZINC001300804061    0.0300
      2 O2         -3.7381    3.4298   53.4110 O.3     1  ZINC001300804061   -0.3800
      3 C3         -4.7969    3.2255   52.4734 C.3     1  ZINC001300804061    0.1000
      4 H4         -5.4306    4.1118   52.4411 H       1  ZINC001300804061    0.0700
      5 C5         -5.6315    2.0161   52.9008 C.3     1  ZINC001300804061    0.0500
      6 N6         -6.7071    1.7928   51.9263 N.3     1  ZINC001300804061   -0.4600
      7 C7         -7.5598    0.7876   52.3499 C.2     1  ZINC001300804061    0.3600
      8 N8         -7.5324   -0.4687   51.9682 N.2     1  ZINC001300804061   -0.3000
      9 N9         -8.4637   -1.1306   52.5562 N.2     1  ZINC001300804061   -0.2500
     10 C10        -9.1448   -0.3352   53.3518 C.2     1  ZINC001300804061    0.2600
     11 C11       -10.2879   -0.7130   54.1977 C.2     1  ZINC001300804061    0.0400
     12 C12       -11.4994   -0.0902   54.2303 C.2     1  ZINC001300804061   -0.1300
     13 C13       -12.2843   -0.7800   55.1745 C.2     1  ZINC001300804061   -0.2100
     14 C14       -11.5243   -1.7783   55.6671 C.2     1  ZINC001300804061    0.0100
     15 C15       -11.9555   -2.7776   56.7096 C.3     1  ZINC001300804061   -0.0800
     16 O16       -10.3212   -1.7388   55.0710 O.3     1  ZINC001300804061   -0.1700
     17 N17        -8.5816    0.9174   53.2470 N.pl3   1  ZINC001300804061   -0.4600
     18 C18        -8.9971    2.1362   53.9455 C.3     1  ZINC001300804061    0.1200
     19 C19        -8.9252    1.9078   55.4566 C.3     1  ZINC001300804061   -0.1000
     20 H20        -9.4717    0.9998   55.7117 H       1  ZINC001300804061    0.0900
     21 C21        -9.5524    3.0964   56.1791 C.3     1  ZINC001300804061   -0.1200
     22 C22        -9.7404    2.7891   57.6618 C.3     1  ZINC001300804061   -0.1200
     23 C23        -8.3802    2.7463   58.3631 C.3     1  ZINC001300804061   -0.0800
     24 S24        -7.3987    1.3890   57.6577 S.3     1  ZINC001300804061   -0.2600
     25 C25        -7.4614    1.7556   55.8785 C.3     1  ZINC001300804061   -0.0700
     26 C26        -6.1639    1.4958   50.5948 C.3     1  ZINC001300804061    0.0600
     27 C27        -5.3451    2.6896   50.0985 C.3     1  ZINC001300804061   -0.1100
     28 C28        -4.2069    2.9679   51.0841 C.3     1  ZINC001300804061   -0.0900
     29 H29        -3.5421    2.1051   51.1259 H       1  ZINC001300804061    0.0800
     30 C30        -3.4209    4.1971   50.6237 C.3     1  ZINC001300804061   -0.1400
     31 H31        -4.1309    5.4172   53.8171 H       1  ZINC001300804061    0.0400
     32 H32        -4.8848    4.2447   54.9241 H       1  ZINC001300804061    0.0400
     33 H33        -3.1377    4.5691   55.0265 H       1  ZINC001300804061    0.0900
     34 H34        -4.9943    1.1329   52.9470 H       1  ZINC001300804061    0.0700
     35 H35        -6.0648    2.2028   53.8835 H       1  ZINC001300804061    0.0800
     36 H36       -11.7996    0.7668   53.6456 H       1  ZINC001300804061    0.1600
     37 H37       -13.3029   -0.5520   55.4516 H       1  ZINC001300804061    0.1600
     38 H38       -12.4008   -3.6438   56.2202 H       1  ZINC001300804061    0.0900
     39 H39       -11.0888   -3.0939   57.2901 H       1  ZINC001300804061    0.0800
     40 H40       -12.6886   -2.3179   57.3723 H       1  ZINC001300804061    0.0900
     41 H41        -8.3344    2.9566   53.6702 H       1  ZINC001300804061    0.1100
     42 H42       -10.0203    2.3854   53.6640 H       1  ZINC001300804061    0.1000
     43 H43        -8.9028    3.9650   56.0720 H       1  ZINC001300804061    0.0700
     44 H44       -10.5220    3.3169   55.7325 H       1  ZINC001300804061    0.0800
     45 H45       -10.3578    3.5639   58.1165 H       1  ZINC001300804061    0.0800
     46 H46       -10.2347    1.8239   57.7715 H       1  ZINC001300804061    0.0800
     47 H47        -7.8599    3.6916   58.2090 H       1  ZINC001300804061    0.0800
     48 H48        -8.5246    2.5764   59.4301 H       1  ZINC001300804061    0.1100
     49 H49        -7.0058    0.9373   55.3209 H       1  ZINC001300804061    0.1000
     50 H50        -6.9230    2.6816   55.6773 H       1  ZINC001300804061    0.0900
     51 H51        -5.5241    0.6151   50.6517 H       1  ZINC001300804061    0.0600
     52 H52        -6.9839    1.3047   49.9024 H       1  ZINC001300804061    0.0800
     53 H53        -4.9292    2.4628   49.1168 H       1  ZINC001300804061    0.0800
     54 H54        -5.9875    3.5674   50.0280 H       1  ZINC001300804061    0.0800
     55 H55        -4.0859    5.0599   50.5844 H       1  ZINC001300804061    0.0500
     56 H56        -2.6109    4.3944   51.3258 H       1  ZINC001300804061    0.0600
     57 H57        -3.0058    4.0129   49.6328 H       1  ZINC001300804061    0.0600
@<TRIPOS>BOND
     1     1     2    1
     2     1    31    1
     3     1    32    1
     4     1    33    1
     5     2     3    1
     6     3     4    1
     7     3    28    1
     8     3     5    1
     9     5     6    1
    10     5    34    1
    11     5    35    1
    12     6     7    1
    13     6    26    1
    14     7    17    1
    15     7     8    2
    16     8     9    1
    17     9    10    2
    18    10    11    1
    19    10    17    1
    20    11    16    1
    21    11    12    2
    22    12    13    1
    23    12    36    1
    24    13    14    2
    25    13    37    1
    26    14    15    1
    27    14    16    1
    28    15    38    1
    29    15    39    1
    30    15    40    1
    31    17    18    1
    32    18    19    1
    33    18    41    1
    34    18    42    1
    35    19    20    1
    36    19    25    1
    37    19    21    1
    38    21    22    1
    39    21    43    1
    40    21    44    1
    41    22    23    1
    42    22    45    1
    43    22    46    1
    44    23    24    1
    45    23    47    1
    46    23    48    1
    47    24    25    1
    48    25    49    1
    49    25    50    1
    50    26    27    1
    51    26    51    1
    52    26    52    1
    53    27    28    1
    54    27    53    1
    55    27    54    1
    56    28    29    1
    57    28    30    1
    58    30    55    1
    59    30    56    1
    60    30    57    1
@<TRIPOS>SUBSTRUCTURE
     1 ZINC001300804061        1 TEMP              0 ****  ****    0 ROOT


##########                                Name:    ZINC001002468398
##########                DOCK_Rotatable_Bonds:                   7
##########                         Heavy_Atoms:                  24
##########                    Molecular_Weight:             341.358
##########                DOCK_Rotatable_Bonds:                   7
##########                       Formal_Charge:           0.0100001
##########                     HBond_Acceptors:                   8
##########                        HBond_Donors:                   0
##########                         Heavy_Atoms:                  24
##########                          Grid_Score:          -31.456875
##########                     Grid_vdw_energy:          -30.248024
##########                      Grid_es_energy:           -1.208851
##########           Internal_energy_repulsive:           31.507248

@<TRIPOS>MOLECULE
ZINC001002468398
 45 47 1 0 0
SMALL
USER_CHARGES


@<TRIPOS>ATOM
      1 C1          3.6175    0.3382   42.7465 C.3     1  ZINC001002468398   -0.1400
      2 C2          2.5878    1.1398   41.9478 C.3     1  ZINC001002468398   -0.0500
      3 C3          1.3498    0.3050   41.7438 C.2     1  ZINC001002468398    0.0500
      4 C4          0.2802    0.2246   42.5814 C.2     1  ZINC001002468398   -0.0800
      5 C5          0.1137    0.9383   43.8604 C.2     1  ZINC001002468398    0.6000
      6 O6          1.0394    1.5743   44.3268 O.2     1  ZINC001002468398   -0.5300
      7 N7         -1.0644    0.8860   44.5130 N.am    1  ZINC001002468398   -0.6000
      8 C8         -2.1795    0.1198   43.9511 C.3     1  ZINC001002468398    0.0900
      9 C9         -1.2298    1.5953   45.7840 C.3     1  ZINC001002468398    0.1000
     10 C10        -0.4563    0.8620   46.8816 C.3     1  ZINC001002468398    0.1300
     11 H11         0.5793    0.7193   46.5731 H       1  ZINC001002468398    0.0800
     12 C12        -1.1135   -0.5057   47.1627 C.3     1  ZINC001002468398   -0.1300
     13 C13        -0.9895   -0.6409   48.7033 C.3     1  ZINC001002468398   -0.1300
     14 C14        -1.1836    0.8263   49.1609 C.3     1  ZINC001002468398    0.1000
     15 N15        -0.5035    1.6372   48.1300 N.am    1  ZINC001002468398   -0.6100
     16 C16        -0.0117    2.8796   48.3060 C.2     1  ZINC001002468398    0.5600
     17 O17         0.5295    3.4538   47.3849 O.2     1  ZINC001002468398   -0.5100
     18 C18        -0.1345    3.5556   49.6474 C.3     1  ZINC001002468398   -0.2000
     19 H19        -1.1527    3.7153   50.0019 H       1  ZINC001002468398    0.1500
     20 C20         0.9118    4.6135   50.0037 C.3     1  ZINC001002468398   -0.1500
     21 C21         0.9379    3.2477   50.6944 C.3     1  ZINC001002468398    0.2300
     22 F22         0.5366    3.1932   52.0335 F       1  ZINC001002468398   -0.1500
     23 F23         1.9576    2.3606   50.3332 F       1  ZINC001002468398   -0.1400
     24 N24        -0.6070   -0.6382   42.0156 N.2     1  ZINC001002468398   -0.4600
     25 C25        -0.1092   -1.0636   40.8933 C.2     1  ZINC001002468398    0.1700
     26 O26         1.0897   -0.4964   40.6986 O.3     1  ZINC001002468398   -0.2000
     27 H27         3.1967    0.0697   43.7156 H       1  ZINC001002468398    0.0600
     28 H28         3.8765   -0.5681   42.1992 H       1  ZINC001002468398    0.0600
     29 H29         4.5130    0.9420   42.8941 H       1  ZINC001002468398    0.0700
     30 H30         2.3289    2.0461   42.4951 H       1  ZINC001002468398    0.1200
     31 H31         3.0086    1.4082   40.9788 H       1  ZINC001002468398    0.0900
     32 H32        -1.9084   -0.9349   43.9038 H       1  ZINC001002468398    0.0700
     33 H33        -3.0588    0.2408   44.5839 H       1  ZINC001002468398    0.0700
     34 H34        -2.4012    0.4834   42.9478 H       1  ZINC001002468398    0.0700
     35 H35        -0.8464    2.6110   45.6860 H       1  ZINC001002468398    0.0900
     36 H36        -2.2874    1.6298   46.0460 H       1  ZINC001002468398    0.0900
     37 H37        -2.1604   -0.5003   46.8591 H       1  ZINC001002468398    0.1000
     38 H38        -0.5694   -1.3055   46.6604 H       1  ZINC001002468398    0.0800
     39 H39        -1.7747   -1.2821   49.1037 H       1  ZINC001002468398    0.0900
     40 H40        -0.0037   -1.0108   48.9851 H       1  ZINC001002468398    0.0800
     41 H41        -2.2443    1.0739   49.2014 H       1  ZINC001002468398    0.0800
     42 H42        -0.7187    0.9849   50.1340 H       1  ZINC001002468398    0.0800
     43 H43         1.6889    4.8207   49.2680 H       1  ZINC001002468398    0.1300
     44 H44         0.5819    5.4691   50.5930 H       1  ZINC001002468398    0.1400
     45 H45        -0.5878   -1.7607   40.2214 H       1  ZINC001002468398    0.2600
@<TRIPOS>BOND
     1     1     2    1
     2     1    27    1
     3     1    28    1
     4     1    29    1
     5     2     3    1
     6     2    30    1
     7     2    31    1
     8     3    26    1
     9     3     4    2
    10     4     5    1
    11     4    24    1
    12     5     6    2
    13     5     7   am
    14     7     8    1
    15     7     9    1
    16     8    32    1
    17     8    33    1
    18     8    34    1
    19     9    10    1
    20     9    35    1
    21     9    36    1
    22    10    11    1
    23    10    15    1
    24    10    12    1
    25    12    13    1
    26    12    37    1
    27    12    38    1
    28    13    14    1
    29    13    39    1
    30    13    40    1
    31    14    15    1
    32    14    41    1
    33    14    42    1
    34    15    16   am
    35    16    17    2
    36    16    18    1
    37    18    19    1
    38    18    21    1
    39    18    20    1
    40    20    21    1
    41    20    43    1
    42    20    44    1
    43    21    22    1
    44    21    23    1
    45    24    25    2
    46    25    26    1
    47    25    45    1
@<TRIPOS>SUBSTRUCTURE
     1 ZINC001002468398        1 TEMP              0 ****  ****    0 ROOT


##########                                Name:    ZINC001041713551
##########                DOCK_Rotatable_Bonds:                  10
##########                         Heavy_Atoms:                  22
##########                    Molecular_Weight:             330.448
##########                DOCK_Rotatable_Bonds:                  10
##########                       Formal_Charge:          -0.0100006
##########                     HBond_Acceptors:                   7
##########                        HBond_Donors:                   2
##########                         Heavy_Atoms:                  22
##########                          Grid_Score:          -31.358391
##########                     Grid_vdw_energy:          -30.966530
##########                      Grid_es_energy:           -0.391861
##########           Internal_energy_repulsive:            7.766734

@<TRIPOS>MOLECULE
ZINC001041713551
 48 49 1 0 0
SMALL
USER_CHARGES


@<TRIPOS>ATOM
      1 C1          3.3234    1.3494   42.2886 C.3     1  ZINC001041713551   -0.1500
      2 C2          2.1579    0.4209   41.9412 C.3     1  ZINC001041713551   -0.1100
      3 C3          1.0728    0.5415   43.0130 C.3     1  ZINC001041713551   -0.1000
      4 S4         -0.3453   -0.4937   42.5570 S.3     1  ZINC001041713551   -0.1800
      5 C5         -1.6393    0.0595   43.7016 C.3     1  ZINC001041713551   -0.1300
      6 C6         -1.1240   -0.0142   45.1159 C.2     1  ZINC001041713551    0.5300
      7 O7         -1.2990   -1.0180   45.7735 O.2     1  ZINC001041713551   -0.5100
      8 N8         -0.4687    1.0356   45.6499 N.am    1  ZINC001041713551   -0.7300
      9 C9          0.0336    0.9633   47.0242 C.3     1  ZINC001041713551    0.1000
     10 C10        -0.5920    2.0851   47.8555 C.3     1  ZINC001041713551    0.0900
     11 O11        -0.2876    3.3875   47.3525 O.3     1  ZINC001041713551   -0.5200
     12 C12        -2.0851    1.8700   48.1627 C.3     1  ZINC001041713551    0.0900
     13 N13        -1.7708    2.3471   49.5234 N.am    1  ZINC001041713551   -0.6400
     14 C14        -2.4842    2.9257   50.5098 C.2     1  ZINC001041713551    0.5500
     15 O15        -1.9451    3.2204   51.5554 O.2     1  ZINC001041713551   -0.5100
     16 C16        -3.9518    3.2063   50.3134 C.3     1  ZINC001041713551    0.0800
     17 H17        -4.0873    3.8329   49.4319 H       1  ZINC001041713551    0.0800
     18 C18        -4.5021    3.9311   51.5444 C.3     1  ZINC001041713551   -0.1500
     19 C19        -6.0060    4.1591   51.3632 C.3     1  ZINC001041713551   -0.1200
     20 C20        -6.6912    2.8094   51.1285 C.3     1  ZINC001041713551   -0.1600
     21 C21        -6.0563    2.1279   49.9137 C.3     1  ZINC001041713551    0.0600
     22 O22        -4.6528    1.9740   50.1345 O.3     1  ZINC001041713551   -0.3600
     23 C23        -0.3616    1.9363   49.3704 C.3     1  ZINC001041713551    0.1200
     24 H24         3.7363    1.0674   43.2572 H       1  ZINC001041713551    0.0600
     25 H25         4.0964    1.2634   41.5251 H       1  ZINC001041713551    0.0600
     26 H26         2.9676    2.3788   42.3312 H       1  ZINC001041713551    0.0600
     27 H27         1.7449    0.7030   40.9727 H       1  ZINC001041713551    0.0700
     28 H28         2.5137   -0.6085   41.8987 H       1  ZINC001041713551    0.0700
     29 H29         1.4709    0.2103   43.9722 H       1  ZINC001041713551    0.0800
     30 H30         0.7536    1.5808   43.0916 H       1  ZINC001041713551    0.0800
     31 H31        -1.9150    1.0881   43.4685 H       1  ZINC001041713551    0.1100
     32 H32        -2.5137   -0.5831   43.5996 H       1  ZINC001041713551    0.1100
     33 H33        -0.3299    1.8390   45.1244 H       1  ZINC001041713551    0.4000
     34 H34        -0.2311   -0.0011   47.4576 H       1  ZINC001041713551    0.0900
     35 H35         1.1179    1.0749   47.0210 H       1  ZINC001041713551    0.0900
     36 H36        -0.6360    4.1094   47.8935 H       1  ZINC001041713551    0.3800
     37 H37        -2.7480    2.5332   47.6068 H       1  ZINC001041713551    0.0900
     38 H38        -2.3957    0.8259   48.1241 H       1  ZINC001041713551    0.1000
     39 H39        -4.3304    3.3228   52.4325 H       1  ZINC001041713551    0.0800
     40 H40        -3.9991    4.8916   51.6569 H       1  ZINC001041713551    0.0800
     41 H41        -6.4149    4.6246   52.2600 H       1  ZINC001041713551    0.0700
     42 H42        -6.1755    4.8082   50.5041 H       1  ZINC001041713551    0.0700
     43 H43        -6.5637    2.1783   52.0082 H       1  ZINC001041713551    0.0700
     44 H44        -7.7537    2.9675   50.9436 H       1  ZINC001041713551    0.0800
     45 H45        -6.5109    1.1480   49.7676 H       1  ZINC001041713551    0.1000
     46 H46        -6.2195    2.7402   49.0268 H       1  ZINC001041713551    0.0500
     47 H47        -0.1659    0.9116   49.6864 H       1  ZINC001041713551    0.1100
     48 H48         0.3516    2.6524   49.7786 H       1  ZINC001041713551    0.1000
@<TRIPOS>BOND
     1     1     2    1
     2     1    24    1
     3     1    25    1
     4     1    26    1
     5     2     3    1
     6     2    27    1
     7     2    28    1
     8     3     4    1
     9     3    29    1
    10     3    30    1
    11     4     5    1
    12     5     6    1
    13     5    31    1
    14     5    32    1
    15     6     7    2
    16     6     8   am
    17     8     9    1
    18     8    33    1
    19     9    10    1
    20     9    34    1
    21     9    35    1
    22    10    23    1
    23    10    11    1
    24    10    12    1
    25    11    36    1
    26    12    13    1
    27    12    37    1
    28    12    38    1
    29    13    14   am
    30    13    23    1
    31    14    15    2
    32    14    16    1
    33    16    17    1
    34    16    22    1
    35    16    18    1
    36    18    19    1
    37    18    39    1
    38    18    40    1
    39    19    20    1
    40    19    41    1
    41    19    42    1
    42    20    21    1
    43    20    43    1
    44    20    44    1
    45    21    22    1
    46    21    45    1
    47    21    46    1
    48    23    47    1
    49    23    48    1
@<TRIPOS>SUBSTRUCTURE
     1 ZINC001041713551        1 TEMP              0 ****  ****    0 ROOT


##########                                Name:    ZINC000643274279
##########                DOCK_Rotatable_Bonds:                   6
##########                         Heavy_Atoms:                  29
##########                    Molecular_Weight:             392.454
##########                DOCK_Rotatable_Bonds:                   6
##########                       Formal_Charge:         -0.00999939
##########                     HBond_Acceptors:                   6
##########                        HBond_Donors:                   2
##########                         Heavy_Atoms:                  29
##########                          Grid_Score:          -31.358389
##########                     Grid_vdw_energy:          -30.603714
##########                      Grid_es_energy:           -0.754676
##########           Internal_energy_repulsive:           11.030600

@<TRIPOS>MOLECULE
ZINC000643274279
 53 56 1 0 0
SMALL
USER_CHARGES


@<TRIPOS>ATOM
      1 O1         -4.8457    2.1107   52.3672 O.2     1  ZINC000643274279   -0.4900
      2 C2         -5.4006    3.0106   51.7709 C.2     1  ZINC000643274279    0.5100
      3 N3         -4.7843    3.6132   50.7348 N.am    1  ZINC000643274279   -0.6400
      4 C4         -3.5038    3.2058   50.3507 C.ar    1  ZINC000643274279    0.1300
      5 C5         -2.3927    3.6508   51.0583 C.ar    1  ZINC000643274279   -0.1000
      6 C6         -1.1197    3.2621   50.6780 C.ar    1  ZINC000643274279   -0.1000
      7 C7         -0.9519    2.4316   49.5921 C.ar    1  ZINC000643274279   -0.0600
      8 C8          0.4458    2.0595   49.1291 C.3     1  ZINC000643274279   -0.0900
      9 C9          0.6772    0.5728   49.3740 C.3     1  ZINC000643274279   -0.1200
     10 C10         0.1984   -0.2666   48.1991 C.3     1  ZINC000643274279   -0.1100
     11 C11        -1.3015   -0.3379   48.0624 C.3     1  ZINC000643274279   -0.1600
     12 C12        -1.8631    1.0370   47.7566 C.2     1  ZINC000643274279    0.4100
     13 O13        -2.1405    1.3651   46.6228 O.2     1  ZINC000643274279   -0.4400
     14 C14        -2.0597    1.9592   48.8887 C.ar    1  ZINC000643274279   -0.1300
     15 C15        -3.3444    2.3534   49.2677 C.ar    1  ZINC000643274279   -0.1000
     16 C16        -6.7690    3.4459   52.1816 C.2     1  ZINC000643274279    0.5200
     17 O17        -7.0065    4.6244   52.3476 O.2     1  ZINC000643274279   -0.5000
     18 N18        -7.7400    2.5300   52.3676 N.am    1  ZINC000643274279   -0.5800
     19 C19        -7.5901    1.0728   52.2014 C.3     1  ZINC000643274279    0.0900
     20 C20        -8.7001    0.4562   53.0888 C.3     1  ZINC000643274279   -0.1400
     21 C21        -9.8597    1.4665   52.8842 C.3     1  ZINC000643274279   -0.1200
     22 C22        -9.1227    2.8181   52.7762 C.3     1  ZINC000643274279    0.1800
     23 H23        -9.1315    3.3233   53.7420 H       1  ZINC000643274279    0.0900
     24 C24        -9.7898    3.6841   51.7389 C.ar    1  ZINC000643274279   -0.1000
     25 C25       -10.7792    4.5736   52.1151 C.ar    1  ZINC000643274279   -0.0900
     26 C26       -11.3922    5.3686   51.1661 C.ar    1  ZINC000643274279   -0.1400
     27 C27       -11.0140    5.2743   49.8347 C.ar    1  ZINC000643274279    0.1100
     28 O28       -11.6152    6.0556   48.8994 O.3     1  ZINC000643274279   -0.5000
     29 C29       -10.0206    4.3814   49.4599 C.ar    1  ZINC000643274279   -0.1400
     30 C30        -9.4073    3.5920   50.4133 C.ar    1  ZINC000643274279   -0.0900
     31 H31        -5.2294    4.3297   50.2559 H       1  ZINC000643274279    0.4200
     32 H32        -2.5235    4.3036   51.9088 H       1  ZINC000643274279    0.1400
     33 H33        -0.2599    3.6096   51.2314 H       1  ZINC000643274279    0.1400
     34 H34         0.5456    2.2729   48.0648 H       1  ZINC000643274279    0.0800
     35 H35         1.1807    2.6392   49.6877 H       1  ZINC000643274279    0.0800
     36 H36         1.7424    0.3983   49.5259 H       1  ZINC000643274279    0.0800
     37 H37         0.1365    0.2712   50.2712 H       1  ZINC000643274279    0.0700
     38 H38         0.6105    0.1539   47.2818 H       1  ZINC000643274279    0.0700
     39 H39         0.5844   -1.2792   48.3163 H       1  ZINC000643274279    0.0800
     40 H40        -1.5587   -1.0215   47.2533 H       1  ZINC000643274279    0.0900
     41 H41        -1.7323   -0.7053   48.9940 H       1  ZINC000643274279    0.0900
     42 H42        -4.2060    2.0011   48.7202 H       1  ZINC000643274279    0.1300
     43 H43        -7.7386    0.7927   51.1586 H       1  ZINC000643274279    0.0800
     44 H44        -6.6070    0.7511   52.5453 H       1  ZINC000643274279    0.1000
     45 H45        -8.9787   -0.5356   52.7330 H       1  ZINC000643274279    0.0900
     46 H46        -8.3912    0.4223   54.1335 H       1  ZINC000643274279    0.0800
     47 H47       -10.4055    1.2464   51.9668 H       1  ZINC000643274279    0.0800
     48 H48       -10.5302    1.4632   53.7435 H       1  ZINC000643274279    0.0900
     49 H49       -11.0733    4.6467   53.1517 H       1  ZINC000643274279    0.1200
     50 H50       -12.1656    6.0627   51.4604 H       1  ZINC000643274279    0.1300
     51 H51       -11.2843    5.9191   48.0011 H       1  ZINC000643274279    0.3900
     52 H52        -9.7247    4.3058   48.4239 H       1  ZINC000643274279    0.1300
     53 H53        -8.6337    2.8970   50.1221 H       1  ZINC000643274279    0.1300
@<TRIPOS>BOND
     1     1     2    2
     2     2     3   am
     3     2    16    1
     4     3     4    1
     5     3    31    1
     6     4    15   ar
     7     4     5   ar
     8     5     6   ar
     9     5    32    1
    10     6     7   ar
    11     6    33    1
    12     7    14   ar
    13     7     8    1
    14     8     9    1
    15     8    34    1
    16     8    35    1
    17     9    10    1
    18     9    36    1
    19     9    37    1
    20    10    11    1
    21    10    38    1
    22    10    39    1
    23    11    12    1
    24    11    40    1
    25    11    41    1
    26    12    13    2
    27    12    14    1
    28    14    15   ar
    29    15    42    1
    30    16    17    2
    31    16    18   am
    32    18    22    1
    33    18    19    1
    34    19    20    1
    35    19    43    1
    36    19    44    1
    37    20    21    1
    38    20    45    1
    39    20    46    1
    40    21    22    1
    41    21    47    1
    42    21    48    1
    43    22    23    1
    44    22    24    1
    45    24    30   ar
    46    24    25   ar
    47    25    26   ar
    48    25    49    1
    49    26    27   ar
    50    26    50    1
    51    27    28    1
    52    27    29   ar
    53    28    51    1
    54    29    30   ar
    55    29    52    1
    56    30    53    1
@<TRIPOS>SUBSTRUCTURE
     1 ZINC000643274279        1 TEMP              0 ****  ****    0 ROOT


##########                                Name:    ZINC000564088286
##########                DOCK_Rotatable_Bonds:                   6
##########                         Heavy_Atoms:                  25
##########                    Molecular_Weight:             398.934
##########                DOCK_Rotatable_Bonds:                   6
##########                       Formal_Charge:               -0.05
##########                     HBond_Acceptors:                   8
##########                        HBond_Donors:                   1
##########                         Heavy_Atoms:                  25
##########                          Grid_Score:          -31.354231
##########                     Grid_vdw_energy:          -31.415741
##########                      Grid_es_energy:            0.061510
##########           Internal_energy_repulsive:           12.764971

@<TRIPOS>MOLECULE
ZINC000564088286
 44 46 1 0 0
SMALL
USER_CHARGES


@<TRIPOS>ATOM
      1 C1        -14.0142   -2.8017   56.3446 C.3     1  ZINC000564088286   -0.1600
      2 C2        -13.1010   -1.5741   56.3596 C.3     1  ZINC000564088286    0.1100
      3 N3        -12.0336   -1.7716   57.3432 N.am    1  ZINC000564088286   -1.1200
      4 S4        -10.5412   -2.2950   56.8518 S.o2    1  ZINC000564088286    2.7000
      5 O5         -9.7000   -2.2399   57.9957 O.2     1  ZINC000564088286   -0.9600
      6 O6        -10.7591   -3.4833   56.1036 O.2     1  ZINC000564088286   -0.9600
      7 C7         -9.9170   -1.1001   55.7173 C.ar    1  ZINC000564088286   -0.6800
      8 C8         -9.1271   -0.0610   56.1729 C.ar    1  ZINC000564088286   -0.0200
      9 C9         -8.6374    0.8765   55.2828 C.ar    1  ZINC000564088286   -0.1300
     10 C10        -8.9371    0.7747   53.9371 C.ar    1  ZINC000564088286   -0.0100
     11 C11        -8.4036    1.7970   52.9670 C.3     1  ZINC000564088286   -0.1100
     12 C12        -7.3534    1.1604   52.0935 C.2     1  ZINC000564088286    0.5200
     13 O13        -7.1556   -0.0345   52.1560 O.2     1  ZINC000564088286   -0.5200
     14 N14        -6.6342    1.9189   51.2427 N.am    1  ZINC000564088286   -0.6200
     15 C15        -6.8582    3.3695   51.1510 C.3     1  ZINC000564088286    0.1200
     16 C16        -5.5935    4.0898   51.6288 C.3     1  ZINC000564088286   -0.0700
     17 C17        -4.3827    3.4334   50.9999 C.2     1  ZINC000564088286   -0.1600
     18 C18        -4.3667    2.2048   50.4501 C.2     1  ZINC000564088286   -0.1200
     19 C19        -3.1238    1.8298   49.9484 C.2     1  ZINC000564088286   -0.1100
     20 C20        -2.1547    2.7319   50.0793 C.2     1  ZINC000564088286   -0.1500
     21 Cl21       -0.5170    2.5268   49.5414 Cl      1  ZINC000564088286   -0.0100
     22 S22        -2.7865    4.1629   50.8796 S.3     1  ZINC000564088286    0.1600
     23 C23        -5.6010    1.3191   50.3866 C.3     1  ZINC000564088286    0.1700
     24 C24        -9.7258   -0.2651   53.4815 C.ar    1  ZINC000564088286   -0.1300
     25 C25       -10.2124   -1.2048   54.3709 C.ar    1  ZINC000564088286   -0.0200
     26 H26       -13.4326   -3.6840   56.0774 H       1  ZINC000564088286    0.0600
     27 H27       -14.4521   -2.9407   57.3330 H       1  ZINC000564088286    0.0600
     28 H28       -14.8085   -2.6548   55.6127 H       1  ZINC000564088286    0.0700
     29 H29       -12.6631   -1.4350   55.3711 H       1  ZINC000564088286    0.0800
     30 H30       -13.6827   -0.6918   56.6267 H       1  ZINC000564088286    0.0700
     31 H31       -12.2008   -1.5958   58.2824 H       1  ZINC000564088286    0.4200
     32 H32        -8.8930    0.0184   57.2241 H       1  ZINC000564088286    0.1400
     33 H33        -8.0209    1.6886   55.6389 H       1  ZINC000564088286    0.1300
     34 H34        -9.2183    2.1671   52.3446 H       1  ZINC000564088286    0.1100
     35 H35        -7.9625    2.6266   53.5194 H       1  ZINC000564088286    0.1100
     36 H36        -7.0665    3.6431   50.1167 H       1  ZINC000564088286    0.0800
     37 H37        -7.7004    3.6505   51.7834 H       1  ZINC000564088286    0.1100
     38 H38        -5.6360    5.1374   51.3308 H       1  ZINC000564088286    0.0900
     39 H39        -5.5227    4.0209   52.7143 H       1  ZINC000564088286    0.0900
     40 H40        -2.9568    0.8694   49.4835 H       1  ZINC000564088286    0.1500
     41 H41        -5.3566    0.3190   50.7445 H       1  ZINC000564088286    0.1000
     42 H42        -5.9651    1.2661   49.3605 H       1  ZINC000564088286    0.0900
     43 H43        -9.9596   -0.3448   52.4301 H       1  ZINC000564088286    0.1300
     44 H44       -10.8286   -2.0171   54.0150 H       1  ZINC000564088286    0.1400
@<TRIPOS>BOND
     1     1     2    1
     2     1    26    1
     3     1    27    1
     4     1    28    1
     5     2     3    1
     6     2    29    1
     7     2    30    1
     8     3     4   am
     9     3    31    1
    10     4     5    2
    11     4     6    2
    12     4     7    1
    13     7    25   ar
    14     7     8   ar
    15     8     9   ar
    16     8    32    1
    17     9    10   ar
    18     9    33    1
    19    10    11    1
    20    10    24   ar
    21    11    12    1
    22    11    34    1
    23    11    35    1
    24    12    13    2
    25    12    14   am
    26    14    23    1
    27    14    15    1
    28    15    16    1
    29    15    36    1
    30    15    37    1
    31    16    17    1
    32    16    38    1
    33    16    39    1
    34    17    22    1
    35    17    18    2
    36    18    19    1
    37    18    23    1
    38    19    20    2
    39    19    40    1
    40    20    21    1
    41    20    22    1
    42    23    41    1
    43    23    42    1
    44    24    25   ar
    45    24    43    1
    46    25    44    1
@<TRIPOS>SUBSTRUCTURE
     1 ZINC000564088286        1 TEMP              0 ****  ****    0 ROOT


##########                                Name:    ZINC000945148121
##########                DOCK_Rotatable_Bonds:                   6
##########                         Heavy_Atoms:                  24
##########                    Molecular_Weight:             332.446
##########                DOCK_Rotatable_Bonds:                   6
##########                       Formal_Charge:           0.0100009
##########                     HBond_Acceptors:                   6
##########                        HBond_Donors:                   2
##########                         Heavy_Atoms:                  24
##########                          Grid_Score:          -31.354000
##########                     Grid_vdw_energy:          -30.197517
##########                      Grid_es_energy:           -1.156483
##########           Internal_energy_repulsive:           17.332911

@<TRIPOS>MOLECULE
ZINC000945148121
 52 54 1 0 0
SMALL
USER_CHARGES


@<TRIPOS>ATOM
      1 O1         -3.0548    2.0791   47.5538 O.2     1  ZINC000945148121   -0.5100
      2 C2         -2.2474    1.8144   48.4192 C.2     1  ZINC000945148121    0.5200
      3 C3         -1.0260    0.9970   48.0855 C.3     1  ZINC000945148121   -0.0500
      4 C4         -1.2507    0.2649   46.7876 C.2     1  ZINC000945148121    0.0100
      5 C5         -1.6472   -1.0157   46.6597 C.2     1  ZINC000945148121   -0.0500
      6 N6         -1.7259   -1.2738   45.3178 N.pl3   1  ZINC000945148121   -0.5700
      7 C7         -1.3746   -0.1411   44.6718 C.2     1  ZINC000945148121    0.1800
      8 N8         -1.0966    0.7764   45.5573 N.2     1  ZINC000945148121   -0.4700
      9 N9         -2.4394    2.2559   49.6780 N.am    1  ZINC000945148121   -0.7300
     10 C10        -3.6267    3.0504   50.0023 C.3     1  ZINC000945148121    0.1500
     11 C11        -4.7807    2.1153   50.3714 C.3     1  ZINC000945148121   -0.1400
     12 C12        -6.0299    2.9481   50.6764 C.3     1  ZINC000945148121    0.1100
     13 N13        -5.6985    3.9357   51.7125 N.am    1  ZINC000945148121   -0.6100
     14 C14        -6.4348    4.0236   52.8379 C.2     1  ZINC000945148121    0.5200
     15 O15        -6.1519    4.8441   53.6851 O.2     1  ZINC000945148121   -0.5400
     16 C16        -7.6095    3.1023   53.0437 C.3     1  ZINC000945148121   -0.1000
     17 C17        -7.1182    1.7407   53.4542 C.3     1  ZINC000945148121   -0.1200
     18 C18        -8.0052    0.6050   52.9094 C.3     1  ZINC000945148121   -0.1200
     19 C19        -9.5096    0.9216   53.0090 C.3     1  ZINC000945148121   -0.1200
     20 C20        -9.8751    1.5758   54.3139 C.3     1  ZINC000945148121   -0.1200
     21 C21        -9.8584    3.1054   54.1168 C.3     1  ZINC000945148121   -0.1200
     22 C22        -8.5120    3.6562   54.1652 C.3     1  ZINC000945148121   -0.1000
     23 C23        -4.5489    4.8255   51.4985 C.3     1  ZINC000945148121    0.1100
     24 C24        -3.3164    3.9716   51.1844 C.3     1  ZINC000945148121   -0.1400
     25 H25        -0.1636    1.6563   47.9861 H       1  ZINC000945148121    0.1000
     26 H26        -0.8424    0.2762   48.8822 H       1  ZINC000945148121    0.1000
     27 H27        -1.8615   -1.7064   47.4618 H       1  ZINC000945148121    0.1800
     28 H28        -1.9855   -2.1135   44.9074 H       1  ZINC000945148121    0.4200
     29 H29        -1.3344   -0.0143   43.6000 H       1  ZINC000945148121    0.2100
     30 H30        -1.7916    2.0474   50.3692 H       1  ZINC000945148121    0.4000
     31 H31        -3.9089    3.6513   49.1379 H       1  ZINC000945148121    0.0900
     32 H32        -4.9857    1.4439   49.5377 H       1  ZINC000945148121    0.0800
     33 H33        -4.5090    1.5317   51.2510 H       1  ZINC000945148121    0.0700
     34 H34        -6.3558    3.4624   49.7723 H       1  ZINC000945148121    0.0700
     35 H35        -6.8257    2.2953   51.0350 H       1  ZINC000945148121    0.1000
     36 H36        -8.1807    3.0252   52.1186 H       1  ZINC000945148121    0.1000
     37 H37        -6.1029    1.6049   53.0815 H       1  ZINC000945148121    0.0700
     38 H38        -7.1026    1.6847   54.5427 H       1  ZINC000945148121    0.0700
     39 H39        -7.7511    0.4312   51.8637 H       1  ZINC000945148121    0.0600
     40 H40        -7.7992   -0.3040   53.4746 H       1  ZINC000945148121    0.0700
     41 H41        -9.7847    1.5879   52.1914 H       1  ZINC000945148121    0.0600
     42 H42       -10.0728   -0.0063   52.9098 H       1  ZINC000945148121    0.0600
     43 H43       -10.8724    1.2566   54.6169 H       1  ZINC000945148121    0.0600
     44 H44        -9.1503    1.2971   55.0789 H       1  ZINC000945148121    0.0700
     45 H45       -10.3017    3.3416   53.1495 H       1  ZINC000945148121    0.0600
     46 H46       -10.4577    3.5689   54.9003 H       1  ZINC000945148121    0.0600
     47 H47        -8.0658    3.4136   55.1296 H       1  ZINC000945148121    0.0700
     48 H48        -8.5705    4.7404   54.0682 H       1  ZINC000945148121    0.0700
     49 H49        -4.7542    5.4928   50.6615 H       1  ZINC000945148121    0.0700
     50 H50        -4.3676    5.4112   52.3997 H       1  ZINC000945148121    0.1000
     51 H51        -3.0585    3.3705   52.0563 H       1  ZINC000945148121    0.0700
     52 H52        -2.4792    4.6213   50.9293 H       1  ZINC000945148121    0.0800
@<TRIPOS>BOND
     1     1     2    2
     2     2     3    1
     3     2     9   am
     4     3     4    1
     5     3    25    1
     6     3    26    1
     7     4     8    1
     8     4     5    2
     9     5     6    1
    10     5    27    1
    11     6     7    1
    12     6    28    1
    13     7     8    2
    14     7    29    1
    15     9    10    1
    16     9    30    1
    17    10    24    1
    18    10    11    1
    19    10    31    1
    20    11    12    1
    21    11    32    1
    22    11    33    1
    23    12    13    1
    24    12    34    1
    25    12    35    1
    26    13    14   am
    27    13    23    1
    28    14    15    2
    29    14    16    1
    30    16    22    1
    31    16    17    1
    32    16    36    1
    33    17    18    1
    34    17    37    1
    35    17    38    1
    36    18    19    1
    37    18    39    1
    38    18    40    1
    39    19    20    1
    40    19    41    1
    41    19    42    1
    42    20    21    1
    43    20    43    1
    44    20    44    1
    45    21    22    1
    46    21    45    1
    47    21    46    1
    48    22    47    1
    49    22    48    1
    50    23    24    1
    51    23    49    1
    52    23    50    1
    53    24    51    1
    54    24    52    1
@<TRIPOS>SUBSTRUCTURE
     1 ZINC000945148121        1 TEMP              0 ****  ****    0 ROOT


##########                                Name:    ZINC001060620810
##########                DOCK_Rotatable_Bonds:                   5
##########                         Heavy_Atoms:                  24
##########                    Molecular_Weight:             332.421
##########                DOCK_Rotatable_Bonds:                   5
##########                       Formal_Charge:           0.0299998
##########                     HBond_Acceptors:                   6
##########                        HBond_Donors:                   2
##########                         Heavy_Atoms:                  24
##########                          Grid_Score:          -31.347870
##########                     Grid_vdw_energy:          -30.795389
##########                      Grid_es_energy:           -0.552481
##########           Internal_energy_repulsive:           10.313348

@<TRIPOS>MOLECULE
ZINC001060620810
 49 52 1 0 0
SMALL
USER_CHARGES


@<TRIPOS>ATOM
      1 O1         -2.0201    3.5261   50.8024 O.2     1  ZINC001060620810   -0.5400
      2 C2         -2.9550    2.8687   50.3963 C.2     1  ZINC001060620810    0.5500
      3 N3         -2.7328    1.7852   49.6262 N.am    1  ZINC001060620810   -0.7200
      4 C4         -1.3620    1.4004   49.2811 C.3     1  ZINC001060620810    0.1400
      5 C5         -1.3413   -0.0609   48.8282 C.3     1  ZINC001060620810   -0.1300
      6 C6          0.0903   -0.4629   48.4677 C.3     1  ZINC001060620810   -0.1300
      7 C7          0.6007    0.4297   47.3346 C.3     1  ZINC001060620810    0.1600
      8 N8         -0.2614    0.2699   46.1611 N.pl3   1  ZINC001060620810   -0.6900
      9 C9          0.2803    0.3446   44.8882 C.ar    1  ZINC001060620810    0.5600
     10 N10         1.5640    0.6397   44.7488 N.ar    1  ZINC001060620810   -0.5400
     11 C11         2.1147    0.7145   43.5482 C.ar    1  ZINC001060620810    0.1700
     12 C12         1.3273    0.4897   42.4277 C.ar    1  ZINC001060620810   -0.0700
     13 F13         1.8555    0.5626   41.1864 F       1  ZINC001060620810   -0.1300
     14 C14        -0.0149    0.1880   42.6109 C.ar    1  ZINC001060620810    0.1800
     15 N15        -0.4994    0.1244   43.8403 N.ar    1  ZINC001060620810   -0.5500
     16 C16         0.5800    1.8909   47.7876 C.3     1  ZINC001060620810   -0.1200
     17 C17        -0.8517    2.2928   48.1480 C.3     1  ZINC001060620810   -0.1300
     18 C18        -4.3649    3.2636   50.7528 C.3     1  ZINC001060620810   -0.1500
     19 C19        -4.6488    4.7596   50.7866 C.3     1  ZINC001060620810   -0.1500
     20 C20        -4.5383    3.9830   52.0812 C.3     1  ZINC001060620810   -0.1100
     21 H21        -3.6399    4.1667   52.6704 H       1  ZINC001060620810    0.1100
     22 C22        -5.8095    3.7999   52.9043 C.3     1  ZINC001060620810   -0.0900
     23 C23        -6.5456    2.5303   52.4762 C.3     1  ZINC001060620810   -0.1200
     24 C24        -6.7671    2.5815   50.9602 C.3     1  ZINC001060620810   -0.1200
     25 C25        -5.4358    2.3011   50.2634 C.3     1  ZINC001060620810   -0.0800
     26 H26        -3.4806    1.2603   49.3004 H       1  ZINC001060620810    0.4000
     27 H27        -0.7205    1.5193   50.1543 H       1  ZINC001060620810    0.0900
     28 H28        -1.7049   -0.6967   49.6353 H       1  ZINC001060620810    0.0700
     29 H29        -1.9828   -0.1797   47.9550 H       1  ZINC001060620810    0.0600
     30 H30         0.1051   -1.5039   48.1450 H       1  ZINC001060620810    0.0700
     31 H31         0.7318   -0.3440   49.3409 H       1  ZINC001060620810    0.0800
     32 H32         1.6206    0.1433   47.0779 H       1  ZINC001060620810    0.1000
     33 H33        -1.2116    0.1117   46.2753 H       1  ZINC001060620810    0.4100
     34 H34         3.1627    0.9519   43.4412 H       1  ZINC001060620810    0.1800
     35 H35        -0.6559    0.0079   41.7606 H       1  ZINC001060620810    0.1800
     36 H36         0.9436    2.5267   46.9804 H       1  ZINC001060620810    0.0800
     37 H37         1.2214    2.0097   48.6608 H       1  ZINC001060620810    0.0900
     38 H38        -1.4931    2.1739   47.2748 H       1  ZINC001060620810    0.0700
     39 H39        -0.8664    3.3339   48.4707 H       1  ZINC001060620810    0.0800
     40 H40        -3.8287    5.4339   50.5403 H       1  ZINC001060620810    0.1000
     41 H41        -5.6404    5.0914   50.4786 H       1  ZINC001060620810    0.1100
     42 H42        -6.4529    4.6639   52.7382 H       1  ZINC001060620810    0.0700
     43 H43        -5.5602    3.7334   53.9633 H       1  ZINC001060620810    0.0700
     44 H44        -7.5080    2.4760   52.9851 H       1  ZINC001060620810    0.0700
     45 H45        -5.9453    1.6563   52.7290 H       1  ZINC001060620810    0.0700
     46 H46        -7.1277    3.5703   50.6763 H       1  ZINC001060620810    0.0700
     47 H47        -7.4977    1.8259   50.6714 H       1  ZINC001060620810    0.0700
     48 H48        -5.5611    2.4196   49.1870 H       1  ZINC001060620810    0.0700
     49 H49        -5.1260    1.2785   50.4789 H       1  ZINC001060620810    0.0700
@<TRIPOS>BOND
     1     1     2    2
     2     2     3   am
     3     2    18    1
     4     3     4    1
     5     3    26    1
     6     4    17    1
     7     4     5    1
     8     4    27    1
     9     5     6    1
    10     5    28    1
    11     5    29    1
    12     6     7    1
    13     6    30    1
    14     6    31    1
    15     7     8    1
    16     7    16    1
    17     7    32    1
    18     8     9    1
    19     8    33    1
    20     9    15   ar
    21     9    10   ar
    22    10    11   ar
    23    11    12   ar
    24    11    34    1
    25    12    13    1
    26    12    14   ar
    27    14    15   ar
    28    14    35    1
    29    16    17    1
    30    16    36    1
    31    16    37    1
    32    17    38    1
    33    17    39    1
    34    18    20    1
    35    18    25    1
    36    18    19    1
    37    19    20    1
    38    19    40    1
    39    19    41    1
    40    20    21    1
    41    20    22    1
    42    22    23    1
    43    22    42    1
    44    22    43    1
    45    23    24    1
    46    23    44    1
    47    23    45    1
    48    24    25    1
    49    24    46    1
    50    24    47    1
    51    25    48    1
    52    25    49    1
@<TRIPOS>SUBSTRUCTURE
     1 ZINC001060620810        1 TEMP              0 ****  ****    0 ROOT


##########                                Name:    ZINC000501032137
##########                DOCK_Rotatable_Bonds:                  10
##########                         Heavy_Atoms:                  25
##########                    Molecular_Weight:             407.307
##########                DOCK_Rotatable_Bonds:                  10
##########                       Formal_Charge:           0.0099998
##########                     HBond_Acceptors:                   5
##########                        HBond_Donors:                   1
##########                         Heavy_Atoms:                  25
##########                          Grid_Score:          -31.326994
##########                     Grid_vdw_energy:          -30.083321
##########                      Grid_es_energy:           -1.243674
##########           Internal_energy_repulsive:           16.998524

@<TRIPOS>MOLECULE
ZINC000501032137
 48 50 1 0 0
SMALL
USER_CHARGES


@<TRIPOS>ATOM
      1 C1          3.2812    2.7874   52.8495 C.3     1  ZINC000501032137   -0.1500
      2 C2          2.9692    4.2511   52.5314 C.3     1  ZINC000501032137   -0.1200
      3 C3          1.4890    4.5275   52.8022 C.3     1  ZINC000501032137    0.0600
      4 O4          0.6874    3.6769   51.9802 O.3     1  ZINC000501032137   -0.3800
      5 C5          0.7937    3.9517   50.5819 C.3     1  ZINC000501032137    0.0500
      6 C6         -0.0950    2.9804   49.8022 C.3     1  ZINC000501032137    0.1600
      7 H7          0.0111    1.9781   50.2171 H       1  ZINC000501032137    0.1000
      8 C8          0.3275    2.9709   48.3317 C.3     1  ZINC000501032137   -0.0900
      9 C9         -0.0192    1.6390   47.7180 C.ar    1  ZINC000501032137   -0.0600
     10 C10         0.4032    0.4693   48.3213 C.ar    1  ZINC000501032137   -0.0900
     11 C11         0.0854   -0.7530   47.7587 C.ar    1  ZINC000501032137   -0.1100
     12 C12        -0.6547   -0.8059   46.5929 C.ar    1  ZINC000501032137   -0.0900
     13 C13        -1.0777    0.3646   45.9887 C.ar    1  ZINC000501032137   -0.0800
     14 Br14       -2.0904    0.2930   44.3933 Br      1  ZINC000501032137   -0.0600
     15 C15        -0.7644    1.5870   46.5549 C.ar    1  ZINC000501032137   -0.0800
     16 N16        -1.4927    3.4065   49.9060 N.am    1  ZINC000501032137   -0.7100
     17 C17        -2.4799    2.4891   49.8908 C.2     1  ZINC000501032137    0.6100
     18 O18        -2.2102    1.3074   49.7925 O.2     1  ZINC000501032137   -0.5200
     19 C19        -3.8865    2.9181   49.9935 C.2     1  ZINC000501032137   -0.0800
     20 C20        -4.3457    4.0451   50.6027 C.2     1  ZINC000501032137    0.0800
     21 C21        -3.5136    5.0903   51.3000 C.3     1  ZINC000501032137   -0.0800
     22 C22        -4.2159    5.9856   52.3228 C.3     1  ZINC000501032137   -0.1700
     23 C23        -3.2468    4.8995   52.7944 C.3     1  ZINC000501032137   -0.1500
     24 O24        -5.6810    4.0487   50.4638 O.3     1  ZINC000501032137   -0.2000
     25 C25        -6.0350    2.9486   49.7845 C.2     1  ZINC000501032137    0.1800
     26 N26        -4.9695    2.2648   49.4919 N.2     1  ZINC000501032137   -0.4600
     27 H27         3.0605    2.5885   53.8983 H       1  ZINC000501032137    0.0600
     28 H28         2.6698    2.1406   52.2205 H       1  ZINC000501032137    0.0600
     29 H29         4.3358    2.5905   52.6565 H       1  ZINC000501032137    0.0600
     30 H30         3.5807    4.8980   53.1604 H       1  ZINC000501032137    0.0700
     31 H31         3.1900    4.4500   51.4826 H       1  ZINC000501032137    0.0700
     32 H32         1.2688    4.3313   53.8516 H       1  ZINC000501032137    0.0500
     33 H33         1.2661    5.5696   52.5728 H       1  ZINC000501032137    0.0500
     34 H34         0.4718    4.9747   50.3871 H       1  ZINC000501032137    0.0700
     35 H35         1.8297    3.8303   50.2654 H       1  ZINC000501032137    0.0600
     36 H36        -0.1962    3.7641   47.7982 H       1  ZINC000501032137    0.0900
     37 H37         1.4028    3.1344   48.2616 H       1  ZINC000501032137    0.0800
     38 H38         0.9819    0.5102   49.2323 H       1  ZINC000501032137    0.1200
     39 H39         0.4159   -1.6667   48.2303 H       1  ZINC000501032137    0.1300
     40 H40        -0.9026   -1.7608   46.1533 H       1  ZINC000501032137    0.1300
     41 H41        -1.0947    2.5010   46.0837 H       1  ZINC000501032137    0.1200
     42 H42        -1.7077    4.3491   49.9856 H       1  ZINC000501032137    0.4100
     43 H43        -2.7206    5.5370   50.7002 H       1  ZINC000501032137    0.1500
     44 H44        -3.8850    7.0216   52.3960 H       1  ZINC000501032137    0.1100
     45 H45        -5.2796    5.8186   52.4915 H       1  ZINC000501032137    0.1000
     46 H46        -3.6731    4.0180   53.2733 H       1  ZINC000501032137    0.1000
     47 H47        -2.2785    5.2210   53.1779 H       1  ZINC000501032137    0.1100
     48 H48        -7.0457    2.6757   49.5192 H       1  ZINC000501032137    0.2500
@<TRIPOS>BOND
     1     1     2    1
     2     1    27    1
     3     1    28    1
     4     1    29    1
     5     2     3    1
     6     2    30    1
     7     2    31    1
     8     3     4    1
     9     3    32    1
    10     3    33    1
    11     4     5    1
    12     5     6    1
    13     5    34    1
    14     5    35    1
    15     6     7    1
    16     6     8    1
    17     6    16    1
    18     8     9    1
    19     8    36    1
    20     8    37    1
    21     9    15   ar
    22     9    10   ar
    23    10    11   ar
    24    10    38    1
    25    11    12   ar
    26    11    39    1
    27    12    13   ar
    28    12    40    1
    29    13    14    1
    30    13    15   ar
    31    15    41    1
    32    16    17   am
    33    16    42    1
    34    17    18    2
    35    17    19    1
    36    19    26    1
    37    19    20    2
    38    20    21    1
    39    20    24    1
    40    21    23    1
    41    21    22    1
    42    21    43    1
    43    22    23    1
    44    22    44    1
    45    22    45    1
    46    23    46    1
    47    23    47    1
    48    24    25    1
    49    25    26    2
    50    25    48    1
@<TRIPOS>SUBSTRUCTURE
     1 ZINC000501032137        1 TEMP              0 ****  ****    0 ROOT


##########                                Name:    ZINC000271662144
##########                DOCK_Rotatable_Bonds:                   8
##########                         Heavy_Atoms:                  26
##########                    Molecular_Weight:             390.402
##########                DOCK_Rotatable_Bonds:                   8
##########                       Formal_Charge:          0.00999944
##########                     HBond_Acceptors:                   9
##########                        HBond_Donors:                   3
##########                         Heavy_Atoms:                  26
##########                          Grid_Score:          -31.326921
##########                     Grid_vdw_energy:          -27.911419
##########                      Grid_es_energy:           -3.415502
##########           Internal_energy_repulsive:           64.925461

@<TRIPOS>MOLECULE
ZINC000271662144
 44 45 1 0 0
SMALL
USER_CHARGES


@<TRIPOS>ATOM
      1 C1         -0.8845   -1.2408   48.6364 C.3     1  ZINC000271662144   -0.1400
      2 C2         -0.9551    0.2077   48.1489 C.3     1  ZINC000271662144    0.1200
      3 H3         -1.9978    0.4957   48.0156 H       1  ZINC000271662144    0.0600
      4 N4         -0.2462    0.3284   46.8679 N.3     1  ZINC000271662144   -0.6700
      5 C5         -1.1678    0.7129   45.7904 C.3     1  ZINC000271662144    0.1300
      6 H6         -2.0706    0.1050   45.8504 H       1  ZINC000271662144    0.1100
      7 C7         -1.5368    2.1902   45.9379 C.3     1  ZINC000271662144   -0.2000
      8 C8         -0.2642    3.0168   46.1337 C.3     1  ZINC000271662144    0.4600
      9 F9         -0.6019    4.3676   46.2698 F       1  ZINC000271662144   -0.1800
     10 F10         0.4004    2.5839   47.2861 F       1  ZINC000271662144   -0.1800
     11 F11         0.5723    2.8548   45.0241 F       1  ZINC000271662144   -0.1700
     12 C12        -0.5014    0.4923   44.4570 C.ar    1  ZINC000271662144   -0.0900
     13 C13         0.8605    0.6896   44.3243 C.ar    1  ZINC000271662144   -0.0600
     14 C14         1.4728    0.4876   43.1020 C.ar    1  ZINC000271662144   -0.1600
     15 C15         0.7216    0.0870   42.0099 C.ar    1  ZINC000271662144    0.1000
     16 F16         1.3192   -0.1112   40.8145 F       1  ZINC000271662144   -0.1400
     17 C17        -0.6422   -0.1108   42.1440 C.ar    1  ZINC000271662144   -0.1500
     18 C18        -1.2514    0.0872   43.3686 C.ar    1  ZINC000271662144   -0.0700
     19 C19        -0.3102    1.1124   49.1671 C.ar    1  ZINC000271662144   -0.1100
     20 C20        -1.0780    2.0250   49.8654 C.ar    1  ZINC000271662144   -0.0400
     21 C21        -0.4863    2.8549   50.7995 C.ar    1  ZINC000271662144   -0.1400
     22 C22         0.8731    2.7718   51.0352 C.ar    1  ZINC000271662144   -0.0200
     23 C23         1.6411    1.8583   50.3372 C.ar    1  ZINC000271662144   -0.6800
     24 S24         3.3742    1.7526   50.6372 S.o2    1  ZINC000271662144    2.7000
     25 N25         3.6348    0.3804   51.5268 N.am    1  ZINC000271662144   -1.2500
     26 O26         3.9875    1.5345   49.3741 O.2     1  ZINC000271662144   -0.9600
     27 O27         3.7026    2.8470   51.4820 O.2     1  ZINC000271662144   -0.9600
     28 C28         1.0488    1.0256   49.4065 C.ar    1  ZINC000271662144   -0.0100
     29 H29        -1.3509   -1.8952   47.8999 H       1  ZINC000271662144    0.0600
     30 H30         0.1584   -1.5289   48.7696 H       1  ZINC000271662144    0.0700
     31 H31        -1.4105   -1.3304   49.5869 H       1  ZINC000271662144    0.0600
     32 H32         0.5198    0.9813   46.9387 H       1  ZINC000271662144    0.3500
     33 H33        -2.0541    2.5271   45.0395 H       1  ZINC000271662144    0.1100
     34 H34        -2.1891    2.3174   46.8019 H       1  ZINC000271662144    0.1200
     35 H35         1.4462    1.0020   45.1763 H       1  ZINC000271662144    0.1300
     36 H36         2.5365    0.6424   42.9984 H       1  ZINC000271662144    0.1400
     37 H37        -1.2291   -0.4228   41.2928 H       1  ZINC000271662144    0.1400
     38 H38        -2.3151   -0.0673   43.4734 H       1  ZINC000271662144    0.1300
     39 H39        -2.1402    2.0901   49.6812 H       1  ZINC000271662144    0.1400
     40 H40        -1.0861    3.5686   51.3448 H       1  ZINC000271662144    0.1400
     41 H41         1.3355    3.4207   51.7643 H       1  ZINC000271662144    0.1400
     42 H42         3.3820   -0.4850   51.1688 H       1  ZINC000271662144    0.4200
     43 H43         4.0403    0.4419   52.4058 H       1  ZINC000271662144    0.4200
     44 H44         1.6487    0.3120   48.8612 H       1  ZINC000271662144    0.1400
@<TRIPOS>BOND
     1     1     2    1
     2     1    29    1
     3     1    30    1
     4     1    31    1
     5     2     3    1
     6     2     4    1
     7     2    19    1
     8     4     5    1
     9     4    32    1
    10     5     6    1
    11     5     7    1
    12     5    12    1
    13     7     8    1
    14     7    33    1
    15     7    34    1
    16     8     9    1
    17     8    10    1
    18     8    11    1
    19    12    18   ar
    20    12    13   ar
    21    13    14   ar
    22    13    35    1
    23    14    15   ar
    24    14    36    1
    25    15    16    1
    26    15    17   ar
    27    17    18   ar
    28    17    37    1
    29    18    38    1
    30    19    28   ar
    31    19    20   ar
    32    20    21   ar
    33    20    39    1
    34    21    22   ar
    35    21    40    1
    36    22    23   ar
    37    22    41    1
    38    23    24    1
    39    23    28   ar
    40    24    25   am
    41    24    26    2
    42    24    27    2
    43    25    42    1
    44    25    43    1
    45    28    44    1
@<TRIPOS>SUBSTRUCTURE
     1 ZINC000271662144        1 TEMP              0 ****  ****    0 ROOT


##########                                Name:    ZINC000077537368
##########                DOCK_Rotatable_Bonds:                   5
##########                         Heavy_Atoms:                  27
##########                    Molecular_Weight:             365.478
##########                DOCK_Rotatable_Bonds:                   5
##########                       Formal_Charge:          -0.0400007
##########                     HBond_Acceptors:                   6
##########                        HBond_Donors:                   0
##########                         Heavy_Atoms:                  27
##########                          Grid_Score:          -31.311230
##########                     Grid_vdw_energy:          -30.473040
##########                      Grid_es_energy:           -0.838191
##########           Internal_energy_repulsive:           10.718283

@<TRIPOS>MOLECULE
ZINC000077537368
 54 56 1 0 0
SMALL
USER_CHARGES


@<TRIPOS>ATOM
      1 C1          1.6812    1.2111   49.9032 C.3     1  ZINC000077537368    0.0800
      2 N2          1.3223    1.8654   48.6426 N.pl3   1  ZINC000077537368   -0.2600
      3 N3          1.7524    1.5222   47.4819 N.2     1  ZINC000077537368   -0.2700
      4 C4          1.2539    2.2956   46.5513 C.2     1  ZINC000077537368    0.0400
      5 C5          1.5295    2.1960   45.0732 C.3     1  ZINC000077537368    0.0200
      6 C6          2.8864    1.5246   44.8515 C.3     1  ZINC000077537368   -0.1400
      7 C7          0.4335    1.3636   44.4048 C.3     1  ZINC000077537368   -0.1400
      8 C8          1.5487    3.5987   44.4622 C.3     1  ZINC000077537368   -0.1400
      9 C9          0.4204    3.2293   47.1713 C.2     1  ZINC000077537368   -0.2000
     10 C10         0.4746    2.9296   48.5215 C.2     1  ZINC000077537368   -0.0400
     11 C11        -0.2321    3.6241   49.6095 C.2     1  ZINC000077537368    0.5900
     12 O12         0.2192    4.6574   50.0657 O.2     1  ZINC000077537368   -0.5400
     13 N13        -1.3795    3.1152   50.1005 N.am    1  ZINC000077537368   -0.6000
     14 C14        -2.1049    3.7963   51.1836 C.3     1  ZINC000077537368    0.0800
     15 C15        -3.5692    3.9585   50.7618 C.3     1  ZINC000077537368    0.0400
     16 N16        -4.1128    2.6489   50.3776 N.3     1  ZINC000077537368   -0.5300
     17 C17        -5.5587    2.7308   50.1315 C.3     1  ZINC000077537368    0.0900
     18 C18        -6.2997    2.0773   51.2694 C.ar    1  ZINC000077537368   -0.0500
     19 C19        -6.6036    2.8090   52.4038 C.ar    1  ZINC000077537368   -0.1200
     20 C20        -7.2814    2.2170   53.4492 C.ar    1  ZINC000077537368   -0.0700
     21 C21        -7.6613    0.8763   53.3606 C.ar    1  ZINC000077537368   -0.0300
     22 C22        -8.3656    0.2553   54.4418 C.1     1  ZINC000077537368    0.2500
     23 N23        -8.9243   -0.2373   55.2995 N.1     1  ZINC000077537368   -0.4100
     24 C24        -7.3519    0.1439   52.2127 C.ar    1  ZINC000077537368   -0.0700
     25 C25        -6.6783    0.7500   51.1726 C.ar    1  ZINC000077537368   -0.1000
     26 C26        -3.4100    2.1022   49.2093 C.3     1  ZINC000077537368    0.0400
     27 C27        -1.9424    1.8671   49.5633 C.3     1  ZINC000077537368    0.1200
     28 H28         0.9207    0.4733   50.1591 H       1  ZINC000077537368    0.0800
     29 H29         2.6458    0.7155   49.7936 H       1  ZINC000077537368    0.1000
     30 H30         1.7442    1.9576   50.6950 H       1  ZINC000077537368    0.1100
     31 H31         2.8727    0.5254   45.2868 H       1  ZINC000077537368    0.0600
     32 H32         3.0858    1.4526   43.7823 H       1  ZINC000077537368    0.0600
     33 H33         3.6672    2.1177   45.3276 H       1  ZINC000077537368    0.0600
     34 H34        -0.5332    1.8419   44.5628 H       1  ZINC000077537368    0.0600
     35 H35         0.6328    1.2916   43.3357 H       1  ZINC000077537368    0.0600
     36 H36         0.4198    0.3644   44.8401 H       1  ZINC000077537368    0.0600
     37 H37         2.3296    4.1917   44.9383 H       1  ZINC000077537368    0.0600
     38 H38         1.7481    3.5265   43.3931 H       1  ZINC000077537368    0.0600
     39 H39         0.5820    4.0769   44.6201 H       1  ZINC000077537368    0.0600
     40 H40        -0.1484    4.0156   46.6975 H       1  ZINC000077537368    0.1700
     41 H41        -2.0501    3.1986   52.0935 H       1  ZINC000077537368    0.0800
     42 H42        -1.6637    4.7773   51.3594 H       1  ZINC000077537368    0.1200
     43 H43        -4.1452    4.3612   51.5949 H       1  ZINC000077537368    0.0900
     44 H44        -3.6299    4.6405   49.9136 H       1  ZINC000077537368    0.0400
     45 H45        -5.8560    3.7768   50.0576 H       1  ZINC000077537368    0.0900
     46 H46        -5.7983    2.2182   49.1999 H       1  ZINC000077537368    0.0500
     47 H47        -6.3091    3.8459   52.4711 H       1  ZINC000077537368    0.1300
     48 H48        -7.5173    2.7890   54.3345 H       1  ZINC000077537368    0.1300
     49 H49        -7.6429   -0.8933   52.1377 H       1  ZINC000077537368    0.1300
     50 H50        -6.4386    0.1849   50.2840 H       1  ZINC000077537368    0.1400
     51 H51        -3.8705    1.1586   48.9165 H       1  ZINC000077537368    0.1000
     52 H52        -3.4730    2.8100   48.3828 H       1  ZINC000077537368    0.0400
     53 H53        -1.3932    1.5706   48.6697 H       1  ZINC000077537368    0.1000
     54 H54        -1.8687    1.0844   50.3183 H       1  ZINC000077537368    0.0800
@<TRIPOS>BOND
     1     1     2    1
     2     1    28    1
     3     1    29    1
     4     1    30    1
     5     2    10    1
     6     2     3    1
     7     3     4    2
     8     4     5    1
     9     4     9    1
    10     5     6    1
    11     5     7    1
    12     5     8    1
    13     6    31    1
    14     6    32    1
    15     6    33    1
    16     7    34    1
    17     7    35    1
    18     7    36    1
    19     8    37    1
    20     8    38    1
    21     8    39    1
    22     9    10    2
    23     9    40    1
    24    10    11    1
    25    11    12    2
    26    11    13   am
    27    13    27    1
    28    13    14    1
    29    14    15    1
    30    14    41    1
    31    14    42    1
    32    15    16    1
    33    15    43    1
    34    15    44    1
    35    16    17    1
    36    16    26    1
    37    17    18    1
    38    17    45    1
    39    17    46    1
    40    18    25   ar
    41    18    19   ar
    42    19    20   ar
    43    19    47    1
    44    20    21   ar
    45    20    48    1
    46    21    22    1
    47    21    24   ar
    48    22    23    3
    49    24    25   ar
    50    24    49    1
    51    25    50    1
    52    26    27    1
    53    26    51    1
    54    26    52    1
    55    27    53    1
    56    27    54    1
@<TRIPOS>SUBSTRUCTURE
     1 ZINC000077537368        1 TEMP              0 ****  ****    0 ROOT


##########                                Name:    ZINC000558052810
##########                DOCK_Rotatable_Bonds:                   9
##########                         Heavy_Atoms:                  30
##########                    Molecular_Weight:             424.524
##########                DOCK_Rotatable_Bonds:                   9
##########                       Formal_Charge:          -0.0200002
##########                     HBond_Acceptors:                   8
##########                        HBond_Donors:                   1
##########                         Heavy_Atoms:                  30
##########                          Grid_Score:          -31.310202
##########                     Grid_vdw_energy:          -32.301979
##########                      Grid_es_energy:            0.991777
##########           Internal_energy_repulsive:           16.108734

@<TRIPOS>MOLECULE
ZINC000558052810
 54 56 1 0 0
SMALL
USER_CHARGES


@<TRIPOS>ATOM
      1 C1         -7.9199    3.7366   51.6120 C.3     1  ZINC000558052810   -0.1700
      2 C2         -7.0711    3.3328   50.4047 C.3     1  ZINC000558052810    0.1100
      3 N3         -5.6851    3.1230   50.8305 N.am    1  ZINC000558052810   -0.6100
      4 C4         -5.2533    1.8022   51.2944 C.3     1  ZINC000558052810    0.0700
      5 C5         -4.8074    4.1451   50.7954 C.2     1  ZINC000558052810    0.5600
      6 O6         -5.1655    5.2409   50.4104 O.2     1  ZINC000558052810   -0.5300
      7 C7         -3.4085    3.9333   51.2252 C.ar    1  ZINC000558052810   -0.1100
      8 C8         -3.0389    4.1726   52.5496 C.ar    1  ZINC000558052810   -0.1100
      9 C9         -1.7325    3.9742   52.9483 C.ar    1  ZINC000558052810   -0.1000
     10 C10        -0.7863    3.5391   52.0396 C.ar    1  ZINC000558052810   -0.1300
     11 C11        -1.1441    3.2984   50.7182 C.ar    1  ZINC000558052810    0.1400
     12 N12        -0.1826    2.8586   49.8022 N.am    1  ZINC000558052810   -0.6600
     13 C13        -0.0028    1.5390   49.5954 C.2     1  ZINC000558052810    0.5600
     14 O14        -0.6765    0.7306   50.2050 O.2     1  ZINC000558052810   -0.4800
     15 C15         1.0101    1.0757   48.6305 C.ar    1  ZINC000558052810   -0.1900
     16 C16         2.3458    0.9211   49.0185 C.ar    1  ZINC000558052810   -0.0200
     17 C17         3.2582    0.4834   48.0747 C.ar    1  ZINC000558052810   -0.1900
     18 C18         2.8305    0.2131   46.7870 C.ar    1  ZINC000558052810    0.1500
     19 N19         1.5677    0.3650   46.4398 N.ar    1  ZINC000558052810   -0.4900
     20 C20         0.6513    0.7752   47.3042 C.ar    1  ZINC000558052810    0.1600
     21 S21        -1.0224    0.9609   46.7853 S.3     1  ZINC000558052810    0.0600
     22 C22        -0.8068    2.1693   45.4551 C.3     1  ZINC000558052810   -0.0700
     23 C23        -0.0632    1.5297   44.3110 C.2     1  ZINC000558052810   -0.2000
     24 C24        -0.4637    0.4996   43.5280 C.2     1  ZINC000558052810   -0.0100
     25 C25        -1.7649   -0.2544   43.6248 C.3     1  ZINC000558052810   -0.0800
     26 O26         0.5259    0.2831   42.6501 O.3     1  ZINC000558052810    0.1000
     27 N27         1.4458    1.0496   42.8194 N.2     1  ZINC000558052810   -0.3600
     28 C28         1.2112    1.8701   43.8023 C.2     1  ZINC000558052810    0.0300
     29 C29         2.1220    2.9605   44.3049 C.3     1  ZINC000558052810   -0.0800
     30 C30        -2.4550    3.4881   50.3094 C.ar    1  ZINC000558052810   -0.0700
     31 H31        -7.8858    2.9456   52.3611 H       1  ZINC000558052810    0.0600
     32 H32        -7.5276    4.6592   52.0397 H       1  ZINC000558052810    0.0600
     33 H33        -8.9511    3.8927   51.2952 H       1  ZINC000558052810    0.0700
     34 H34        -7.4635    2.4102   49.9771 H       1  ZINC000558052810    0.0800
     35 H35        -7.1053    4.1239   49.6556 H       1  ZINC000558052810    0.0800
     36 H36        -4.9685    1.1914   50.4377 H       1  ZINC000558052810    0.0600
     37 H37        -4.3988    1.9129   51.9618 H       1  ZINC000558052810    0.0800
     38 H38        -6.0715    1.3193   51.8288 H       1  ZINC000558052810    0.0700
     39 H39        -3.7751    4.5134   53.2625 H       1  ZINC000558052810    0.1400
     40 H40        -1.4485    4.1601   53.9736 H       1  ZINC000558052810    0.1400
     41 H41         0.2345    3.3861   52.3573 H       1  ZINC000558052810    0.1300
     42 H42         0.3548    3.5034   49.3161 H       1  ZINC000558052810    0.4100
     43 H43         2.6569    1.1386   50.0296 H       1  ZINC000558052810    0.1400
     44 H44         4.2967    0.3539   48.3414 H       1  ZINC000558052810    0.1500
     45 H45         3.5446   -0.1285   46.0522 H       1  ZINC000558052810    0.1700
     46 H46        -1.7837    2.5074   45.1097 H       1  ZINC000558052810    0.1000
     47 H47        -0.2379    3.0215   45.8270 H       1  ZINC000558052810    0.1000
     48 H48        -2.5123    0.2286   42.9954 H       1  ZINC000558052810    0.0900
     49 H49        -1.6159   -1.2808   43.2895 H       1  ZINC000558052810    0.0900
     50 H50        -2.1076   -0.2564   44.6595 H       1  ZINC000558052810    0.0900
     51 H51         1.9105    3.8862   43.7695 H       1  ZINC000558052810    0.0800
     52 H52         1.9544    3.1111   45.3713 H       1  ZINC000558052810    0.0800
     53 H53         3.1600    2.6730   44.1373 H       1  ZINC000558052810    0.0800
     54 H54        -2.7350    3.3014   49.2832 H       1  ZINC000558052810    0.1500
@<TRIPOS>BOND
     1     1     2    1
     2     1    31    1
     3     1    32    1
     4     1    33    1
     5     2     3    1
     6     2    34    1
     7     2    35    1
     8     3     4    1
     9     3     5   am
    10     4    36    1
    11     4    37    1
    12     4    38    1
    13     5     6    2
    14     5     7    1
    15     7    30   ar
    16     7     8   ar
    17     8     9   ar
    18     8    39    1
    19     9    10   ar
    20     9    40    1
    21    10    11   ar
    22    10    41    1
    23    11    12    1
    24    11    30   ar
    25    12    13   am
    26    12    42    1
    27    13    14    2
    28    13    15    1
    29    15    20   ar
    30    15    16   ar
    31    16    17   ar
    32    16    43    1
    33    17    18   ar
    34    17    44    1
    35    18    19   ar
    36    18    45    1
    37    19    20   ar
    38    20    21    1
    39    21    22    1
    40    22    23    1
    41    22    46    1
    42    22    47    1
    43    23    28    1
    44    23    24    2
    45    24    25    1
    46    24    26    1
    47    25    48    1
    48    25    49    1
    49    25    50    1
    50    26    27    1
    51    27    28    2
    52    28    29    1
    53    29    51    1
    54    29    52    1
    55    29    53    1
    56    30    54    1
@<TRIPOS>SUBSTRUCTURE
     1 ZINC000558052810        1 TEMP              0 ****  ****    0 ROOT


##########                                Name:    ZINC001091652821
##########                DOCK_Rotatable_Bonds:                   4
##########                         Heavy_Atoms:                  24
##########                    Molecular_Weight:             345.465
##########                DOCK_Rotatable_Bonds:                   4
##########                       Formal_Charge:          -0.0199997
##########                     HBond_Acceptors:                   6
##########                        HBond_Donors:                   0
##########                         Heavy_Atoms:                  24
##########                          Grid_Score:          -31.291349
##########                     Grid_vdw_energy:          -30.089521
##########                      Grid_es_energy:           -1.201828
##########           Internal_energy_repulsive:            6.897019

@<TRIPOS>MOLECULE
ZINC001091652821
 47 50 1 0 0
SMALL
USER_CHARGES


@<TRIPOS>ATOM
      1 C1         -5.9856    2.5737   52.8040 C.3     1  ZINC001091652821   -0.1000
      2 C2         -5.1026    2.5344   51.5834 C.2     1  ZINC001091652821   -0.1200
      3 C3         -5.5094    2.0151   50.4192 C.2     1  ZINC001091652821   -0.2400
      4 S4         -4.2806    2.1222   49.2406 S.3     1  ZINC001091652821    0.2100
      5 C5         -3.1889    2.8981   50.3797 C.2     1  ZINC001091652821   -0.2700
      6 C6         -1.8209    3.3340   50.0845 C.2     1  ZINC001091652821    0.6100
      7 O7         -1.5247    4.5112   50.1732 O.2     1  ZINC001091652821   -0.5200
      8 N8         -0.8910    2.4312   49.7146 N.am    1  ZINC001091652821   -0.6200
      9 C9         -1.0874    0.9811   49.5545 C.3     1  ZINC001091652821    0.0900
     10 C10        -0.1251    0.5328   48.4423 C.3     1  ZINC001091652821   -0.0900
     11 H11         0.3291   -0.4340   48.6595 H       1  ZINC001091652821    0.1100
     12 C12        -0.8775    0.5298   47.0952 C.3     1  ZINC001091652821    0.0400
     13 N13         0.0678    1.1537   46.1343 N.3     1  ZINC001091652821   -0.5000
     14 C14        -0.6425    1.6691   44.9563 C.3     1  ZINC001091652821    0.1200
     15 C15        -0.8813    0.5446   43.9819 C.2     1  ZINC001091652821    0.0000
     16 C16        -1.6698   -0.5243   44.1826 C.2     1  ZINC001091652821   -0.0800
     17 O17        -1.6028   -1.2811   43.0698 O.3     1  ZINC001091652821   -0.2000
     18 C18        -0.7793   -0.6690   42.2085 C.2     1  ZINC001091652821    0.1900
     19 C19        -0.4171   -1.1695   40.8340 C.3     1  ZINC001091652821   -0.0600
     20 N20        -0.3480    0.4331   42.7525 N.2     1  ZINC001091652821   -0.4700
     21 C21         0.6936    2.2590   46.9042 C.3     1  ZINC001091652821    0.0400
     22 C22         0.9303    1.6637   48.3350 C.3     1  ZINC001091652821   -0.0700
     23 C23         2.3670    1.1719   48.5221 C.3     1  ZINC001091652821   -0.1300
     24 C24         0.5177    2.7035   49.3856 C.3     1  ZINC001091652821    0.1200
     25 C25        -3.8222    3.0350   51.5829 C.2     1  ZINC001091652821   -0.0500
     26 H26        -6.5576    3.5016   52.8089 H       1  ZINC001091652821    0.0700
     27 H27        -6.6697    1.7253   52.7849 H       1  ZINC001091652821    0.0700
     28 H28        -5.3683    2.5226   53.7009 H       1  ZINC001091652821    0.0700
     29 H29        -6.4853    1.5849   50.2487 H       1  ZINC001091652821    0.1700
     30 H30        -0.8491    0.4664   50.4853 H       1  ZINC001091652821    0.0800
     31 H31        -2.1172    0.7729   49.2644 H       1  ZINC001091652821    0.0800
     32 H32        -1.1089   -0.4911   46.7915 H       1  ZINC001091652821    0.0800
     33 H33        -1.7901    1.1213   47.1684 H       1  ZINC001091652821    0.0500
     34 H34        -1.5987    2.0918   45.2647 H       1  ZINC001091652821    0.0500
     35 H35        -0.0407    2.4422   44.4786 H       1  ZINC001091652821    0.1000
     36 H36        -2.2486   -0.7370   45.0694 H       1  ZINC001091652821    0.2100
     37 H37        -0.9298   -2.1125   40.6439 H       1  ZINC001091652821    0.0900
     38 H38        -0.7201   -0.4346   40.0881 H       1  ZINC001091652821    0.1000
     39 H39         0.6604   -1.3235   40.7754 H       1  ZINC001091652821    0.1000
     40 H40         1.6466    2.5415   46.4567 H       1  ZINC001091652821    0.0900
     41 H41         0.0241    3.1180   46.9481 H       1  ZINC001091652821    0.0500
     42 H42         3.0558    2.0077   48.3996 H       1  ZINC001091652821    0.0600
     43 H43         2.4798    0.7516   49.5214 H       1  ZINC001091652821    0.0600
     44 H44         2.5886    0.4063   47.7786 H       1  ZINC001091652821    0.0700
     45 H45         0.6002    3.7080   48.9703 H       1  ZINC001091652821    0.0900
     46 H46         1.1473    2.6113   50.2706 H       1  ZINC001091652821    0.0800
     47 H47        -3.3600    3.4844   52.4494 H       1  ZINC001091652821    0.1500
@<TRIPOS>BOND
     1     1     2    1
     2     1    26    1
     3     1    27    1
     4     1    28    1
     5     2    25    1
     6     2     3    2
     7     3     4    1
     8     3    29    1
     9     4     5    1
    10     5     6    1
    11     5    25    2
    12     6     7    2
    13     6     8   am
    14     8    24    1
    15     8     9    1
    16     9    10    1
    17     9    30    1
    18     9    31    1
    19    10    11    1
    20    10    22    1
    21    10    12    1
    22    12    13    1
    23    12    32    1
    24    12    33    1
    25    13    14    1
    26    13    21    1
    27    14    15    1
    28    14    34    1
    29    14    35    1
    30    15    20    1
    31    15    16    2
    32    16    17    1
    33    16    36    1
    34    17    18    1
    35    18    19    1
    36    18    20    2
    37    19    37    1
    38    19    38    1
    39    19    39    1
    40    21    22    1
    41    21    40    1
    42    21    41    1
    43    22    23    1
    44    22    24    1
    45    23    42    1
    46    23    43    1
    47    23    44    1
    48    24    45    1
    49    24    46    1
    50    25    47    1
@<TRIPOS>SUBSTRUCTURE
     1 ZINC001091652821        1 TEMP              0 ****  ****    0 ROOT


##########                                Name:    ZINC000179743483
##########                DOCK_Rotatable_Bonds:                   5
##########                         Heavy_Atoms:                  23
##########                    Molecular_Weight:             393.347
##########                DOCK_Rotatable_Bonds:                   5
##########                       Formal_Charge:          -0.0199999
##########                     HBond_Acceptors:                   4
##########                        HBond_Donors:                   0
##########                         Heavy_Atoms:                  23
##########                          Grid_Score:          -31.260292
##########                     Grid_vdw_energy:          -30.025475
##########                      Grid_es_energy:           -1.234818
##########           Internal_energy_repulsive:           26.163973

@<TRIPOS>MOLECULE
ZINC000179743483
 44 46 1 0 0
SMALL
USER_CHARGES


@<TRIPOS>ATOM
      1 C1          1.6315    2.4366   50.8458 C.3     1  ZINC000179743483   -0.1400
      2 C2          0.2290    2.7184   50.3032 C.3     1  ZINC000179743483   -0.1000
      3 H3         -0.4670    1.9747   50.6914 H       1  ZINC000179743483    0.1000
      4 C4         -0.2176    4.1138   50.7442 C.3     1  ZINC000179743483   -0.0700
      5 C5         -1.7057    4.1134   50.9818 C.ar    1  ZINC000179743483   -0.0600
      6 C6         -2.2365    4.8258   52.0411 C.ar    1  ZINC000179743483   -0.1100
      7 C7         -3.6014    4.8260   52.2591 C.ar    1  ZINC000179743483   -0.0900
      8 C8         -4.4362    4.1132   51.4175 C.ar    1  ZINC000179743483   -0.0900
      9 Br9        -6.3037    4.1136   51.7149 Br      1  ZINC000179743483   -0.0500
     10 C10        -3.9046    3.4006   50.3578 C.ar    1  ZINC000179743483   -0.0900
     11 C11        -2.5402    3.4052   50.1373 C.ar    1  ZINC000179743483   -0.1100
     12 C12         0.2494    2.6498   48.7980 C.2     1  ZINC000179743483    0.5200
     13 O13         0.2572    3.6715   48.1444 O.2     1  ZINC000179743483   -0.5300
     14 N14         0.2591    1.4532   48.1779 N.am    1  ZINC000179743483   -0.6100
     15 C15         0.2499    0.2069   48.9559 C.3     1  ZINC000179743483    0.1000
     16 C16        -0.9102   -0.6684   48.4714 C.3     1  ZINC000179743483   -0.1400
     17 C17        -0.7931   -0.8723   46.9591 C.3     1  ZINC000179743483   -0.1100
     18 C18        -0.8815    0.4819   46.2518 C.3     1  ZINC000179743483   -0.0200
     19 H19        -1.8279    0.9617   46.5014 H       1  ZINC000179743483    0.0900
     20 C20        -0.7994    0.2769   44.7610 C.2     1  ZINC000179743483    0.0500
     21 N21         0.2964    0.2277   44.0816 N.2     1  ZINC000179743483   -0.4700
     22 C22         0.1894    0.0408   42.7815 C.2     1  ZINC000179743483    0.0400
     23 C23        -1.0666   -0.0740   42.3397 C.2     1  ZINC000179743483   -0.2600
     24 S24        -2.1444    0.0688   43.7262 S.3     1  ZINC000179743483    0.1300
     25 C25         0.2728    1.3702   46.7110 C.3     1  ZINC000179743483    0.1200
     26 H26         2.3409    3.1324   50.3977 H       1  ZINC000179743483    0.0700
     27 H27         1.6342    2.5618   51.9285 H       1  ZINC000179743483    0.0700
     28 H28         1.9187    1.4149   50.5975 H       1  ZINC000179743483    0.0600
     29 H29         0.2974    4.3859   51.6655 H       1  ZINC000179743483    0.0900
     30 H30         0.0257    4.8362   49.9650 H       1  ZINC000179743483    0.0800
     31 H31        -1.5846    5.3819   52.6984 H       1  ZINC000179743483    0.1300
     32 H32        -4.0160    5.3822   53.0869 H       1  ZINC000179743483    0.1300
     33 H33        -4.5560    2.8440   49.7004 H       1  ZINC000179743483    0.1300
     34 H34        -2.1250    2.8489   49.3099 H       1  ZINC000179743483    0.1300
     35 H35         1.1920   -0.3217   48.8103 H       1  ZINC000179743483    0.0700
     36 H36         0.1173    0.4371   50.0131 H       1  ZINC000179743483    0.0900
     37 H37        -0.8706   -1.6353   48.9730 H       1  ZINC000179743483    0.0800
     38 H38        -1.8563   -0.1777   48.7001 H       1  ZINC000179743483    0.0700
     39 H39         0.1640   -1.3404   46.7289 H       1  ZINC000179743483    0.0800
     40 H40        -1.6036   -1.5150   46.6155 H       1  ZINC000179743483    0.0700
     41 H41         1.0465   -0.0147   42.1267 H       1  ZINC000179743483    0.1800
     42 H42        -1.3676   -0.2305   41.3143 H       1  ZINC000179743483    0.1800
     43 H43         0.1579    2.3675   46.2862 H       1  ZINC000179743483    0.0900
     44 H44         1.2187    0.9384   46.3842 H       1  ZINC000179743483    0.0800
@<TRIPOS>BOND
     1     1     2    1
     2     1    26    1
     3     1    27    1
     4     1    28    1
     5     2     3    1
     6     2     4    1
     7     2    12    1
     8     4     5    1
     9     4    29    1
    10     4    30    1
    11     5    11   ar
    12     5     6   ar
    13     6     7   ar
    14     6    31    1
    15     7     8   ar
    16     7    32    1
    17     8     9    1
    18     8    10   ar
    19    10    11   ar
    20    10    33    1
    21    11    34    1
    22    12    13    2
    23    12    14   am
    24    14    25    1
    25    14    15    1
    26    15    16    1
    27    15    35    1
    28    15    36    1
    29    16    17    1
    30    16    37    1
    31    16    38    1
    32    17    18    1
    33    17    39    1
    34    17    40    1
    35    18    19    1
    36    18    20    1
    37    18    25    1
    38    20    24    1
    39    20    21    2
    40    21    22    1
    41    22    23    2
    42    22    41    1
    43    23    24    1
    44    23    42    1
    45    25    43    1
    46    25    44    1
@<TRIPOS>SUBSTRUCTURE
     1 ZINC000179743483        1 TEMP              0 ****  ****    0 ROOT


##########                                Name:    ZINC000461336108
##########                DOCK_Rotatable_Bonds:                   5
##########                         Heavy_Atoms:                  26
##########                    Molecular_Weight:             373.522
##########                DOCK_Rotatable_Bonds:                   5
##########                       Formal_Charge:        -3.42727e-07
##########                     HBond_Acceptors:                   7
##########                        HBond_Donors:                   0
##########                         Heavy_Atoms:                  26
##########                          Grid_Score:          -31.243727
##########                     Grid_vdw_energy:          -30.240204
##########                      Grid_es_energy:           -1.003523
##########           Internal_energy_repulsive:           13.330762

@<TRIPOS>MOLECULE
ZINC000461336108
 53 56 1 0 0
SMALL
USER_CHARGES


@<TRIPOS>ATOM
      1 C1          0.0104    3.8303   45.7936 C.3     1  ZINC000461336108   -0.1300
      2 C2          0.1735    2.3132   45.6796 C.3     1  ZINC000461336108    0.0700
      3 H3         -0.6862    1.8953   45.1558 H       1  ZINC000461336108    0.0800
      4 C4          1.4259    2.0028   44.9096 C.2     1  ZINC000461336108    0.5300
      5 O5          1.6749    2.6548   43.9178 O.2     1  ZINC000461336108   -0.5300
      6 N6          2.2777    1.0379   45.2723 N.am    1  ZINC000461336108   -0.6100
      7 C7          3.4523    0.7894   44.4330 C.3     1  ZINC000461336108    0.0700
      8 C8          2.0893    0.2213   46.4679 C.3     1  ZINC000461336108    0.1200
      9 C9          0.6370    0.3104   46.9403 C.3     1  ZINC000461336108    0.0400
     10 N10         0.2561    1.7292   47.0250 N.3     1  ZINC000461336108   -0.4300
     11 C11        -0.9421    1.8821   47.7040 C.2     1  ZINC000461336108    0.3300
     12 N12        -2.0666    1.2541   47.4530 N.2     1  ZINC000461336108   -0.2500
     13 N13        -2.9747    1.6380   48.2774 N.2     1  ZINC000461336108   -0.2800
     14 C14        -2.4877    2.5265   49.0967 C.2     1  ZINC000461336108    0.2000
     15 C15        -3.2321    3.2188   50.2091 C.3     1  ZINC000461336108   -0.0300
     16 C16        -4.7267    2.9152   50.0888 C.3     1  ZINC000461336108   -0.0900
     17 C17        -5.0797    1.6171   50.8566 C.3     1  ZINC000461336108   -0.1200
     18 C18        -6.5909    1.7925   51.1479 C.3     1  ZINC000461336108   -0.1200
     19 C19        -6.7433    3.2945   51.4648 C.3     1  ZINC000461336108   -0.1300
     20 C20        -5.5581    4.0083   50.7914 C.3     1  ZINC000461336108   -0.1200
     21 N21        -1.1741    2.7098   48.7638 N.pl3   1  ZINC000461336108   -0.4900
     22 C22        -0.2167    3.6137   49.4061 C.3     1  ZINC000461336108    0.1700
     23 C23         0.6525    2.8315   50.3569 C.2     1  ZINC000461336108   -0.2400
     24 C24         1.2929    3.3416   51.4100 C.2     1  ZINC000461336108   -0.0900
     25 C25         2.0333    2.4285   52.1408 C.2     1  ZINC000461336108   -0.1400
     26 C26         1.9941    1.1770   51.6812 C.2     1  ZINC000461336108   -0.2000
     27 S27         0.9713    1.1051   50.2521 S.3     1  ZINC000461336108    0.1200
     28 H28         0.8694    4.2498   46.3172 H       1  ZINC000461336108    0.0800
     29 H29        -0.0548    4.2647   44.7961 H       1  ZINC000461336108    0.0800
     30 H30        -0.8998    4.0571   46.3488 H       1  ZINC000461336108    0.0700
     31 H31         3.4466    1.4771   43.5872 H       1  ZINC000461336108    0.0900
     32 H32         4.3576    0.9433   45.0202 H       1  ZINC000461336108    0.0700
     33 H33         3.4267   -0.2370   44.0669 H       1  ZINC000461336108    0.0600
     34 H34         2.3322   -0.8164   46.2390 H       1  ZINC000461336108    0.0900
     35 H35         2.7492    0.5794   47.2581 H       1  ZINC000461336108    0.0900
     36 H36        -0.0110   -0.2015   46.2287 H       1  ZINC000461336108    0.0500
     37 H37         0.5430   -0.1530   47.9225 H       1  ZINC000461336108    0.1100
     38 H38        -2.8647    2.8601   51.1705 H       1  ZINC000461336108    0.0800
     39 H39        -3.0731    4.2949   50.1379 H       1  ZINC000461336108    0.1000
     40 H40        -5.0149    2.8313   49.0409 H       1  ZINC000461336108    0.0900
     41 H41        -4.9057    0.7402   50.2333 H       1  ZINC000461336108    0.0600
     42 H42        -4.5125    1.5513   51.7851 H       1  ZINC000461336108    0.0600
     43 H43        -7.1817    1.5256   50.2717 H       1  ZINC000461336108    0.0700
     44 H44        -6.8864    1.1895   52.0065 H       1  ZINC000461336108    0.0700
     45 H45        -7.6835    3.6681   51.0593 H       1  ZINC000461336108    0.0700
     46 H46        -6.7116    3.4538   52.5426 H       1  ZINC000461336108    0.0600
     47 H47        -4.9512    4.5140   51.5424 H       1  ZINC000461336108    0.0700
     48 H48        -5.9231    4.7284   50.0590 H       1  ZINC000461336108    0.0700
     49 H49         0.4074    4.0822   48.6451 H       1  ZINC000461336108    0.1200
     50 H50        -0.7571    4.3833   49.9573 H       1  ZINC000461336108    0.1000
     51 H51         1.2381    4.3879   51.6722 H       1  ZINC000461336108    0.1400
     52 H52         2.6000    2.7084   53.0165 H       1  ZINC000461336108    0.1500
     53 H53         2.5089    0.3357   52.1215 H       1  ZINC000461336108    0.1700
@<TRIPOS>BOND
     1     1     2    1
     2     1    28    1
     3     1    29    1
     4     1    30    1
     5     2     3    1
     6     2    10    1
     7     2     4    1
     8     4     5    2
     9     4     6   am
    10     6     7    1
    11     6     8    1
    12     7    31    1
    13     7    32    1
    14     7    33    1
    15     8     9    1
    16     8    34    1
    17     8    35    1
    18     9    10    1
    19     9    36    1
    20     9    37    1
    21    10    11    1
    22    11    21    1
    23    11    12    2
    24    12    13    1
    25    13    14    2
    26    14    15    1
    27    14    21    1
    28    15    16    1
    29    15    38    1
    30    15    39    1
    31    16    20    1
    32    16    17    1
    33    16    40    1
    34    17    18    1
    35    17    41    1
    36    17    42    1
    37    18    19    1
    38    18    43    1
    39    18    44    1
    40    19    20    1
    41    19    45    1
    42    19    46    1
    43    20    47    1
    44    20    48    1
    45    21    22    1
    46    22    23    1
    47    22    49    1
    48    22    50    1
    49    23    27    1
    50    23    24    2
    51    24    25    1
    52    24    51    1
    53    25    26    2
    54    25    52    1
    55    26    27    1
    56    26    53    1
@<TRIPOS>SUBSTRUCTURE
     1 ZINC000461336108        1 TEMP              0 ****  ****    0 ROOT


##########                                Name:    ZINC000899027326
##########                DOCK_Rotatable_Bonds:                   5
##########                         Heavy_Atoms:                  22
##########                    Molecular_Weight:             346.169
##########                DOCK_Rotatable_Bonds:                   5
##########                       Formal_Charge:           0.0300005
##########                     HBond_Acceptors:                   9
##########                        HBond_Donors:                   1
##########                         Heavy_Atoms:                  22
##########                          Grid_Score:          -31.241894
##########                     Grid_vdw_energy:          -29.844002
##########                      Grid_es_energy:           -1.397892
##########           Internal_energy_repulsive:           15.082185

@<TRIPOS>MOLECULE
ZINC000899027326
 35 36 1 0 0
SMALL
USER_CHARGES


@<TRIPOS>ATOM
      1 C1          0.6615   -0.4070   47.4320 C.3     1  ZINC000899027326   -0.1500
      2 C2         -0.8358   -0.3218   47.7350 C.3     1  ZINC000899027326    0.1100
      3 H3         -1.2514   -1.3172   47.8915 H       1  ZINC000899027326    0.1400
      4 C4         -1.0859    0.5568   48.9447 C.2     1  ZINC000899027326    0.5300
      5 O5         -0.6888    0.3760   50.0757 O.2     1  ZINC000899027326   -0.4500
      6 N6         -1.8412    1.5811   48.5011 N.am    1  ZINC000899027326   -0.3700
      7 N7         -2.2978    2.6300   49.3097 N.am    1  ZINC000899027326   -0.5000
      8 C8         -3.6110    2.7405   49.5924 C.2     1  ZINC000899027326    0.5200
      9 O9         -4.3971    1.9311   49.1478 O.2     1  ZINC000899027326   -0.4800
     10 C10        -4.1024    3.8699   50.4608 C.3     1  ZINC000899027326    0.0500
     11 O11        -5.5201    3.9908   50.3280 O.3     1  ZINC000899027326   -0.2700
     12 C12        -6.2838    3.1461   51.0705 C.ar    1  ZINC000899027326    0.1400
     13 C13        -5.6833    2.1541   51.8307 C.ar    1  ZINC000899027326   -0.1900
     14 C14        -6.4612    1.2963   52.5849 C.ar    1  ZINC000899027326   -0.0600
     15 C15        -7.8383    1.4262   52.5820 C.ar    1  ZINC000899027326   -0.0600
     16 Cl16       -8.8127    0.3474   53.5310 Cl      1  ZINC000899027326   -0.0500
     17 C17        -8.4405    2.4153   51.8242 C.ar    1  ZINC000899027326   -0.0600
     18 C18        -7.6659    3.2790   51.0730 C.ar    1  ZINC000899027326   -0.0500
     19 Cl19       -8.4211    4.5198   50.1223 Cl      1  ZINC000899027326   -0.0300
     20 C20        -2.1002    1.4728   47.1929 C.2     1  ZINC000899027326    0.7000
     21 O21        -2.7625    2.2767   46.5667 O.2     1  ZINC000899027326   -0.5200
     22 N22        -1.5463    0.3713   46.6465 N.am    1  ZINC000899027326   -0.6200
     23 C23        -1.6322   -0.0486   45.2456 C.3     1  ZINC000899027326    0.1200
     24 H24         1.0614    0.5972   47.2910 H       1  ZINC000899027326    0.0700
     25 H25         1.1739   -0.8885   48.2648 H       1  ZINC000899027326    0.0900
     26 H26         0.8159   -0.9903   46.5242 H       1  ZINC000899027326    0.0900
     27 H27        -1.6689    3.2767   49.6663 H       1  ZINC000899027326    0.4300
     28 H28        -3.8511    3.6640   51.5012 H       1  ZINC000899027326    0.1100
     29 H29        -3.6277    4.8005   50.1496 H       1  ZINC000899027326    0.1100
     30 H30        -4.6081    2.0518   51.8333 H       1  ZINC000899027326    0.1500
     31 H31        -5.9935    0.5234   53.1768 H       1  ZINC000899027326    0.1500
     32 H32        -9.5159    2.5152   51.8233 H       1  ZINC000899027326    0.1500
     33 H33        -2.2251    0.6742   44.6853 H       1  ZINC000899027326    0.0900
     34 H34        -0.6300   -0.1036   44.8207 H       1  ZINC000899027326    0.0700
     35 H35        -2.1054   -1.0289   45.1885 H       1  ZINC000899027326    0.0700
@<TRIPOS>BOND
     1     1     2    1
     2     1    24    1
     3     1    25    1
     4     1    26    1
     5     2     3    1
     6     2    22    1
     7     2     4    1
     8     4     5    2
     9     4     6   am
    10     6     7    1
    11     6    20   am
    12     7     8   am
    13     7    27    1
    14     8     9    2
    15     8    10    1
    16    10    11    1
    17    10    28    1
    18    10    29    1
    19    11    12    1
    20    12    18   ar
    21    12    13   ar
    22    13    14   ar
    23    13    30    1
    24    14    15   ar
    25    14    31    1
    26    15    16    1
    27    15    17   ar
    28    17    18   ar
    29    17    32    1
    30    18    19    1
    31    20    21    2
    32    20    22   am
    33    22    23    1
    34    23    33    1
    35    23    34    1
    36    23    35    1
@<TRIPOS>SUBSTRUCTURE
     1 ZINC000899027326        1 TEMP              0 ****  ****    0 ROOT


##########                                Name:    ZINC000482139334
##########                DOCK_Rotatable_Bonds:                   4
##########                         Heavy_Atoms:                  26
##########                    Molecular_Weight:             348.376
##########                DOCK_Rotatable_Bonds:                   4
##########                       Formal_Charge:           0.0300002
##########                     HBond_Acceptors:                   5
##########                        HBond_Donors:                   1
##########                         Heavy_Atoms:                  26
##########                          Grid_Score:          -31.174273
##########                     Grid_vdw_energy:          -29.302107
##########                      Grid_es_energy:           -1.872165
##########           Internal_energy_repulsive:           13.582865

@<TRIPOS>MOLECULE
ZINC000482139334
 43 47 1 0 0
SMALL
USER_CHARGES


@<TRIPOS>ATOM
      1 O1         -1.0659    2.6924   48.6572 O.2     1  ZINC000482139334   -0.4800
      2 C2         -1.2603    1.4976   48.7303 C.2     1  ZINC000482139334    0.5500
      3 N3         -2.4017    1.0327   49.2757 N.am    1  ZINC000482139334   -0.6100
      4 C4         -3.3510    1.9201   49.7582 C.2     1  ZINC000482139334    0.4300
      5 N5         -4.5102    1.5907   50.2674 N.2     1  ZINC000482139334   -0.4800
      6 C6         -5.1606    2.7277   50.6290 C.2     1  ZINC000482139334    0.0400
      7 C7         -6.5066    2.8113   51.2475 C.ar    1  ZINC000482139334   -0.0500
      8 C8         -7.0923    4.0531   51.4825 C.ar    1  ZINC000482139334   -0.0800
      9 C9         -8.3452    4.1253   52.0577 C.ar    1  ZINC000482139334   -0.1300
     10 C10        -9.0198    2.9680   52.4016 C.ar    1  ZINC000482139334   -0.0800
     11 C11        -8.4448    1.7312   52.1719 C.ar    1  ZINC000482139334   -0.1600
     12 C12        -7.1935    1.6458   51.5909 C.ar    1  ZINC000482139334    0.1300
     13 F13        -6.6320    0.4377   51.3665 F       1  ZINC000482139334   -0.1200
     14 C14        -4.3534    3.7703   50.3211 C.2     1  ZINC000482139334   -0.0600
     15 O15        -3.2274    3.2560   49.7843 O.3     1  ZINC000482139334   -0.1800
     16 C16        -0.2283    0.5327   48.2057 C.3     1  ZINC000482139334   -0.1800
     17 H17         0.6281    0.3599   48.8575 H       1  ZINC000482139334    0.1400
     18 C18        -0.7251   -0.6452   47.3630 C.3     1  ZINC000482139334   -0.1200
     19 C19         0.0162    0.5125   46.7018 C.3     1  ZINC000482139334   -0.0500
     20 C20        -0.7111    1.4896   45.7631 C.3     1  ZINC000482139334   -0.0700
     21 C21         0.0337    1.2745   44.4268 C.3     1  ZINC000482139334   -0.0900
     22 C22         1.4118    0.7809   44.8145 C.ar    1  ZINC000482139334   -0.0800
     23 C23         2.5827    0.7215   44.0786 C.ar    1  ZINC000482139334   -0.1100
     24 C24         3.7384    0.2233   44.6482 C.ar    1  ZINC000482139334   -0.1100
     25 C25         3.7265   -0.2181   45.9579 C.ar    1  ZINC000482139334   -0.1200
     26 C26         2.5595   -0.1598   46.6944 C.ar    1  ZINC000482139334   -0.1000
     27 C27         1.3996    0.3396   46.1264 C.ar    1  ZINC000482139334   -0.0700
     28 H28        -2.5590    0.0771   49.3305 H       1  ZINC000482139334    0.4400
     29 H29        -6.5669    4.9582   51.2153 H       1  ZINC000482139334    0.1300
     30 H30        -8.7995    5.0881   52.2400 H       1  ZINC000482139334    0.1400
     31 H31        -9.9997    3.0303   52.8518 H       1  ZINC000482139334    0.1400
     32 H32        -8.9759    0.8308   52.4431 H       1  ZINC000482139334    0.1400
     33 H33        -4.5688    4.8168   50.4788 H       1  ZINC000482139334    0.2200
     34 H34        -0.1949   -1.5926   47.4598 H       1  ZINC000482139334    0.1200
     35 H35        -1.7982   -0.7221   47.1880 H       1  ZINC000482139334    0.1100
     36 H36        -1.7641    1.2247   45.6675 H       1  ZINC000482139334    0.0800
     37 H37        -0.5981    2.5170   46.1093 H       1  ZINC000482139334    0.0900
     38 H38        -0.4802    0.5259   43.8240 H       1  ZINC000482139334    0.0800
     39 H39         0.1088    2.2146   43.8804 H       1  ZINC000482139334    0.0800
     40 H40         2.5927    1.0658   43.0550 H       1  ZINC000482139334    0.1200
     41 H41         4.6499    0.1784   44.0707 H       1  ZINC000482139334    0.1300
     42 H42         4.6288   -0.6086   46.4048 H       1  ZINC000482139334    0.1300
     43 H43         2.5515   -0.5054   47.7176 H       1  ZINC000482139334    0.1200
@<TRIPOS>BOND
     1     1     2    2
     2     2     3   am
     3     2    16    1
     4     3     4    1
     5     3    28    1
     6     4    15    1
     7     4     5    2
     8     5     6    1
     9     6     7    1
    10     6    14    2
    11     7    12   ar
    12     7     8   ar
    13     8     9   ar
    14     8    29    1
    15     9    10   ar
    16     9    30    1
    17    10    11   ar
    18    10    31    1
    19    11    12   ar
    20    11    32    1
    21    12    13    1
    22    14    15    1
    23    14    33    1
    24    16    17    1
    25    16    19    1
    26    16    18    1
    27    18    19    1
    28    18    34    1
    29    18    35    1
    30    19    27    1
    31    19    20    1
    32    20    21    1
    33    20    36    1
    34    20    37    1
    35    21    22    1
    36    21    38    1
    37    21    39    1
    38    22    27   ar
    39    22    23   ar
    40    23    24   ar
    41    23    40    1
    42    24    25   ar
    43    24    41    1
    44    25    26   ar
    45    25    42    1
    46    26    27   ar
    47    26    43    1
@<TRIPOS>SUBSTRUCTURE
     1 ZINC000482139334        1 TEMP              0 ****  ****    0 ROOT


##########                                Name:    ZINC000790735374
##########                DOCK_Rotatable_Bonds:                   5
##########                         Heavy_Atoms:                  25
##########                    Molecular_Weight:             353.445
##########                DOCK_Rotatable_Bonds:                   5
##########                       Formal_Charge:                   0
##########                     HBond_Acceptors:                   6
##########                        HBond_Donors:                   1
##########                         Heavy_Atoms:                  25
##########                          Grid_Score:          -31.172743
##########                     Grid_vdw_energy:          -29.668177
##########                      Grid_es_energy:           -1.504567
##########           Internal_energy_repulsive:           11.769215

@<TRIPOS>MOLECULE
ZINC000790735374
 44 47 1 0 0
SMALL
USER_CHARGES


@<TRIPOS>ATOM
      1 O1          0.1733    2.7159   51.2252 O.2     1  ZINC000790735374   -0.5100
      2 C2         -0.2231    1.9768   50.3490 C.2     1  ZINC000790735374    0.5000
      3 N3         -1.3838    2.2422   49.7174 N.am    1  ZINC000790735374   -0.7200
      4 C4         -2.1697    3.4200   50.0935 C.3     1  ZINC000790735374    0.1400
      5 C5         -3.6597    3.1108   49.9348 C.3     1  ZINC000790735374   -0.0300
      6 H6         -3.9731    3.3581   48.9206 H       1  ZINC000790735374    0.1100
      7 S7         -3.9410    1.3449   50.2355 S.3     1  ZINC000790735374   -0.2400
      8 C8         -5.7525    1.3117   50.4135 C.3     1  ZINC000790735374   -0.0800
      9 C9         -6.1124    2.1294   51.6451 C.3     1  ZINC000790735374   -0.0800
     10 C10        -5.5293    3.5138   51.6382 C.ar    1  ZINC000790735374   -0.0700
     11 C11        -6.1863    4.4238   52.4734 C.ar    1  ZINC000790735374   -0.1200
     12 C12        -5.7638    5.7270   52.5901 C.ar    1  ZINC000790735374   -0.1100
     13 C13        -4.6632    6.1531   51.8699 C.ar    1  ZINC000790735374   -0.1200
     14 C14        -4.0159    5.2647   51.0419 C.ar    1  ZINC000790735374   -0.1100
     15 C15        -4.4487    3.9405   50.9173 C.ar    1  ZINC000790735374   -0.0800
     16 C16         0.5853    0.7652   49.9621 C.3     1  ZINC000790735374    0.0300
     17 H17         0.8794    0.1969   50.8446 H       1  ZINC000790735374    0.1500
     18 C18        -0.1934   -0.1247   48.9643 C.3     1  ZINC000790735374   -0.1400
     19 C19         0.3045    0.3730   47.6206 C.2     1  ZINC000790735374    0.1200
     20 C20        -0.3253    0.1068   46.3121 C.ar    1  ZINC000790735374   -0.1000
     21 C21         0.1557    0.7248   45.1516 C.ar    1  ZINC000790735374   -0.0400
     22 C22        -0.4696    0.4411   43.9500 C.ar    1  ZINC000790735374   -0.1700
     23 C23        -1.5394   -0.4354   43.9340 C.ar    1  ZINC000790735374    0.1200
     24 N24        -1.9716   -1.0035   45.0436 N.ar    1  ZINC000790735374   -0.4800
     25 C25        -1.4071   -0.7700   46.2100 C.ar    1  ZINC000790735374    0.1400
     26 N26         1.3733    1.0693   47.8179 N.2     1  ZINC000790735374   -0.2700
     27 O27         1.7387    1.1417   49.1828 O.3     1  ZINC000790735374   -0.1600
     28 H28        -1.6988    1.6534   49.0140 H       1  ZINC000790735374    0.4100
     29 H29        -1.9610    3.6799   51.1312 H       1  ZINC000790735374    0.0800
     30 H30        -1.9015    4.2568   49.4485 H       1  ZINC000790735374    0.0900
     31 H31        -6.2186    1.7491   49.5305 H       1  ZINC000790735374    0.0900
     32 H32        -6.0924    0.2838   50.5404 H       1  ZINC000790735374    0.1100
     33 H33        -7.1978    2.2083   51.7064 H       1  ZINC000790735374    0.0900
     34 H34        -5.7531    1.6039   52.5298 H       1  ZINC000790735374    0.0900
     35 H35        -7.0455    4.0951   53.0394 H       1  ZINC000790735374    0.1200
     36 H36        -6.2879    6.4128   53.2391 H       1  ZINC000790735374    0.1300
     37 H37        -4.3155    7.1720   51.9559 H       1  ZINC000790735374    0.1300
     38 H38        -3.1556    5.5961   50.4796 H       1  ZINC000790735374    0.1300
     39 H39         0.0585   -1.1758   49.1051 H       1  ZINC000790735374    0.1200
     40 H40        -1.2675    0.0332   49.0617 H       1  ZINC000790735374    0.1100
     41 H41         0.9930    1.4058   45.1930 H       1  ZINC000790735374    0.1500
     42 H42        -0.1260    0.8995   43.0345 H       1  ZINC000790735374    0.1500
     43 H43        -2.0294   -0.6582   42.9976 H       1  ZINC000790735374    0.1600
     44 H44        -1.7891   -1.2543   47.0964 H       1  ZINC000790735374    0.1600
@<TRIPOS>BOND
     1     1     2    2
     2     2     3   am
     3     2    16    1
     4     3     4    1
     5     3    28    1
     6     4     5    1
     7     4    29    1
     8     4    30    1
     9     5     6    1
    10     5    15    1
    11     5     7    1
    12     7     8    1
    13     8     9    1
    14     8    31    1
    15     8    32    1
    16     9    10    1
    17     9    33    1
    18     9    34    1
    19    10    15   ar
    20    10    11   ar
    21    11    12   ar
    22    11    35    1
    23    12    13   ar
    24    12    36    1
    25    13    14   ar
    26    13    37    1
    27    14    15   ar
    28    14    38    1
    29    16    17    1
    30    16    27    1
    31    16    18    1
    32    18    19    1
    33    18    39    1
    34    18    40    1
    35    19    20    1
    36    19    26    2
    37    20    25   ar
    38    20    21   ar
    39    21    22   ar
    40    21    41    1
    41    22    23   ar
    42    22    42    1
    43    23    24   ar
    44    23    43    1
    45    24    25   ar
    46    25    44    1
    47    26    27    1
@<TRIPOS>SUBSTRUCTURE
     1 ZINC000790735374        1 TEMP              0 ****  ****    0 ROOT


##########                                Name:    ZINC000047262406
##########                DOCK_Rotatable_Bonds:                   6
##########                         Heavy_Atoms:                  28
##########                    Molecular_Weight:             417.919
##########                DOCK_Rotatable_Bonds:                   6
##########                       Formal_Charge:          -0.0100002
##########                     HBond_Acceptors:                   9
##########                        HBond_Donors:                   1
##########                         Heavy_Atoms:                  28
##########                          Grid_Score:          -31.152155
##########                     Grid_vdw_energy:          -29.981062
##########                      Grid_es_energy:           -1.171093
##########           Internal_energy_repulsive:           15.375269

@<TRIPOS>MOLECULE
ZINC000047262406
 48 51 1 0 0
SMALL
USER_CHARGES


@<TRIPOS>ATOM
      1 C1          3.1348   -0.4249   47.0045 C.3     1  ZINC000047262406   -0.1500
      2 C2          3.1123    0.9693   47.6343 C.3     1  ZINC000047262406    0.1800
      3 H3          3.5479    1.6884   46.9405 H       1  ZINC000047262406    0.0800
      4 C4          3.9116    0.9564   48.9118 C.2     1  ZINC000047262406    0.1700
      5 N5          4.9375    0.1951   49.1693 N.2     1  ZINC000047262406   -0.2500
      6 N6          5.3759    0.4477   50.3522 N.2     1  ZINC000047262406   -0.2700
      7 C7          4.6365    1.3897   50.8962 C.2     1  ZINC000047262406    0.2400
      8 C8          4.8052    1.9656   52.2387 C.2     1  ZINC000047262406   -0.1500
      9 C9          4.0230    2.9384   52.7822 C.2     1  ZINC000047262406   -0.0600
     10 C10         4.3826    3.3125   54.0582 C.2     1  ZINC000047262406   -0.1400
     11 C11         5.4384    2.6670   54.5642 C.2     1  ZINC000047262406   -0.1900
     12 S12         6.0447    1.5004   53.3968 S.3     1  ZINC000047262406    0.1700
     13 O13         3.6982    1.7329   49.9897 O.3     1  ZINC000047262406   -0.2200
     14 N14         1.7248    1.3514   47.9286 N.3     1  ZINC000047262406   -0.5200
     15 C15         1.0748    0.3529   48.7871 C.3     1  ZINC000047262406    0.0500
     16 C16        -0.3142    0.8522   49.1911 C.3     1  ZINC000047262406   -0.1000
     17 C17        -1.1513    1.0921   47.9315 C.3     1  ZINC000047262406   -0.1100
     18 C18        -2.4999    1.6409   48.3201 C.2     1  ZINC000047262406    0.5100
     19 O19        -3.2614    2.0404   47.4650 O.2     1  ZINC000047262406   -0.4600
     20 N20        -2.8599    1.6875   49.6181 N.am    1  ZINC000047262406   -0.6600
     21 C21        -4.1079    2.1953   49.9778 C.ar    1  ZINC000047262406    0.3600
     22 C22        -4.2183    3.5149   50.3999 C.ar    1  ZINC000047262406   -0.2000
     23 C23        -5.4626    4.0069   50.7537 C.ar    1  ZINC000047262406   -0.0400
     24 C24        -6.5583    3.1575   50.6725 C.ar    1  ZINC000047262406   -0.1200
     25 Cl25       -8.1416    3.7240   51.1038 Cl      1  ZINC000047262406   -0.0500
     26 C26        -6.3747    1.8561   50.2440 C.ar    1  ZINC000047262406    0.1500
     27 N27        -5.1767    1.4176   49.9088 N.ar    1  ZINC000047262406   -0.4600
     28 C28        -0.4287    2.0992   47.0323 C.3     1  ZINC000047262406   -0.1100
     29 C29         0.9636    1.5637   46.6910 C.3     1  ZINC000047262406    0.0600
     30 H30         2.5566   -0.4156   46.0805 H       1  ZINC000047262406    0.0800
     31 H31         4.1643   -0.7084   46.7861 H       1  ZINC000047262406    0.0700
     32 H32         2.6993   -1.1440   47.6983 H       1  ZINC000047262406    0.0800
     33 H33         3.1896    3.3804   52.2564 H       1  ZINC000047262406    0.1600
     34 H34         3.8502    4.0731   54.6101 H       1  ZINC000047262406    0.1600
     35 H35         5.8548    2.8343   55.5466 H       1  ZINC000047262406    0.1800
     36 H36         0.9789   -0.5867   48.2428 H       1  ZINC000047262406    0.0400
     37 H37         1.6780    0.1945   49.6810 H       1  ZINC000047262406    0.0900
     38 H38        -0.8026    0.1039   49.8154 H       1  ZINC000047262406    0.0800
     39 H39        -0.2182    1.7847   49.7473 H       1  ZINC000047262406    0.0900
     40 H40        -1.2812    0.1518   47.3959 H       1  ZINC000047262406    0.1000
     41 H41        -2.2508    1.3680   50.3021 H       1  ZINC000047262406    0.4200
     42 H42        -3.3448    4.1478   50.4515 H       1  ZINC000047262406    0.1500
     43 H43        -5.5788    5.0280   51.0857 H       1  ZINC000047262406    0.1500
     44 H44        -7.2233    1.1912   50.1794 H       1  ZINC000047262406    0.1700
     45 H45        -0.9990    2.2419   46.1144 H       1  ZINC000047262406    0.0700
     46 H46        -0.3345    3.0513   47.5546 H       1  ZINC000047262406    0.0800
     47 H47         1.4860    2.2849   46.0625 H       1  ZINC000047262406    0.0700
     48 H48         0.8682    0.6185   46.1565 H       1  ZINC000047262406    0.0400
@<TRIPOS>BOND
     1     1     2    1
     2     1    30    1
     3     1    31    1
     4     1    32    1
     5     2     3    1
     6     2     4    1
     7     2    14    1
     8     4    13    1
     9     4     5    2
    10     5     6    1
    11     6     7    2
    12     7     8    1
    13     7    13    1
    14     8    12    1
    15     8     9    2
    16     9    10    1
    17     9    33    1
    18    10    11    2
    19    10    34    1
    20    11    12    1
    21    11    35    1
    22    14    29    1
    23    14    15    1
    24    15    16    1
    25    15    36    1
    26    15    37    1
    27    16    17    1
    28    16    38    1
    29    16    39    1
    30    17    18    1
    31    17    28    1
    32    17    40    1
    33    18    19    2
    34    18    20   am
    35    20    21    1
    36    20    41    1
    37    21    27   ar
    38    21    22   ar
    39    22    23   ar
    40    22    42    1
    41    23    24   ar
    42    23    43    1
    43    24    25    1
    44    24    26   ar
    45    26    27   ar
    46    26    44    1
    47    28    29    1
    48    28    45    1
    49    28    46    1
    50    29    47    1
    51    29    48    1
@<TRIPOS>SUBSTRUCTURE
     1 ZINC000047262406        1 TEMP              0 ****  ****    0 ROOT


##########                                Name:    ZINC000187810810
##########                DOCK_Rotatable_Bonds:                   7
##########                         Heavy_Atoms:                  27
##########                    Molecular_Weight:             386.414
##########                DOCK_Rotatable_Bonds:                   7
##########                       Formal_Charge:           0.0599998
##########                     HBond_Acceptors:                   8
##########                        HBond_Donors:                   1
##########                         Heavy_Atoms:                  27
##########                          Grid_Score:          -31.138380
##########                     Grid_vdw_energy:          -30.061333
##########                      Grid_es_energy:           -1.077047
##########           Internal_energy_repulsive:           75.313171

@<TRIPOS>MOLECULE
ZINC000187810810
 52 53 1 0 0
SMALL
USER_CHARGES


@<TRIPOS>ATOM
      1 C1         -5.7374    4.3630   51.2217 C.3     1  ZINC000187810810   -0.1800
      2 C2         -5.7201    2.8361   51.3189 C.3     1  ZINC000187810810    0.1400
      3 C3         -4.6458    2.2776   50.3836 C.3     1  ZINC000187810810   -0.1800
      4 C4         -5.4095    2.4203   52.7582 C.3     1  ZINC000187810810   -0.1400
      5 O5         -7.0179    2.3119   50.9329 O.3     1  ZINC000187810810   -0.3600
      6 C6         -7.3280    1.0728   51.3587 C.2     1  ZINC000187810810    0.6500
      7 O7         -6.8631    0.1024   50.7941 O.2     1  ZINC000187810810   -0.5600
      8 N8         -8.1539    0.9088   52.4110 N.am    1  ZINC000187810810   -0.6000
      9 C9         -8.4951   -0.4369   52.8921 C.3     1  ZINC000187810810    0.1100
     10 C10       -10.0204   -0.5695   52.9449 C.3     1  ZINC000187810810   -0.1400
     11 C11       -10.5981    0.5663   53.7926 C.3     1  ZINC000187810810    0.1800
     12 C12       -12.1186    0.4173   53.8762 C.3     1  ZINC000187810810   -0.1600
     13 N13       -10.0272    0.5085   55.1404 N.am    1  ZINC000187810810   -0.7100
     14 C14       -10.1847   -0.5992   55.8920 C.2     1  ZINC000187810810    0.5500
     15 O15       -10.8018   -1.5495   55.4521 O.2     1  ZINC000187810810   -0.5100
     16 C16        -9.6070   -0.6582   57.2517 C.ar    1  ZINC000187810810   -0.0900
     17 C17        -8.7777    0.3683   57.7061 C.ar    1  ZINC000187810810   -0.0900
     18 C18        -8.2422    0.3072   58.9762 C.ar    1  ZINC000187810810   -0.0900
     19 C19        -8.5252   -0.7686   59.7985 C.ar    1  ZINC000187810810   -0.0900
     20 C20        -9.3463   -1.7900   59.3540 C.ar    1  ZINC000187810810   -0.0800
     21 C21        -9.8932   -1.7382   58.0887 C.ar    1  ZINC000187810810   -0.1300
     22 C22       -10.7875   -2.8511   57.6063 C.3     1  ZINC000187810810    0.5200
     23 F23       -12.0372   -2.3273   57.2582 F       1  ZINC000187810810   -0.1800
     24 F24       -10.2100   -3.4619   56.4880 F       1  ZINC000187810810   -0.1600
     25 F25       -10.9456   -3.7971   58.6248 F       1  ZINC000187810810   -0.1600
     26 C26       -10.2522    1.9115   53.1498 C.3     1  ZINC000187810810   -0.1500
     27 C27        -8.7251    2.0723   53.1028 C.3     1  ZINC000187810810    0.1300
     28 H28        -5.9585    4.6592   50.1963 H       1  ZINC000187810810    0.0900
     29 H29        -6.5027    4.7608   51.8880 H       1  ZINC000187810810    0.0600
     30 H30        -4.7631    4.7565   51.5115 H       1  ZINC000187810810    0.0700
     31 H31        -3.6715    2.6712   50.6734 H       1  ZINC000187810810    0.0700
     32 H32        -4.6334    1.1899   50.4529 H       1  ZINC000187810810    0.0600
     33 H33        -4.8670    2.5739   49.3582 H       1  ZINC000187810810    0.0900
     34 H34        -6.1750    2.8181   53.4245 H       1  ZINC000187810810    0.0700
     35 H35        -5.3973    1.3325   52.8274 H       1  ZINC000187810810    0.0700
     36 H36        -4.4353    2.8138   53.0479 H       1  ZINC000187810810    0.0800
     37 H37        -8.0869   -1.1831   52.2104 H       1  ZINC000187810810    0.1000
     38 H38        -8.0807   -0.5844   53.8894 H       1  ZINC000187810810    0.0700
     39 H39       -10.4258   -0.5122   51.9348 H       1  ZINC000187810810    0.0900
     40 H40       -10.2870   -1.5278   53.3905 H       1  ZINC000187810810    0.0900
     41 H41       -12.3651   -0.5402   54.3350 H       1  ZINC000187810810    0.0600
     42 H42       -12.5302    1.2262   54.4798 H       1  ZINC000187810810    0.0800
     43 H43       -12.5435    0.4598   52.8733 H       1  ZINC000187810810    0.0700
     44 H44        -9.5357    1.2673   55.4920 H       1  ZINC000187810810    0.4000
     45 H45        -8.5555    1.2084   57.0647 H       1  ZINC000187810810    0.1400
     46 H46        -7.6003    1.1009   59.3290 H       1  ZINC000187810810    0.1400
     47 H47        -8.1032   -0.8118   60.7917 H       1  ZINC000187810810    0.1400
     48 H48        -9.5630   -2.6272   60.0008 H       1  ZINC000187810810    0.1500
     49 H49       -10.6554    1.9455   52.1377 H       1  ZINC000187810810    0.0800
     50 H50       -10.6838    2.7190   53.7413 H       1  ZINC000187810810    0.1000
     51 H51        -8.3323    2.1298   54.1180 H       1  ZINC000187810810    0.0700
     52 H52        -8.4701    2.9813   52.5581 H       1  ZINC000187810810    0.1000
@<TRIPOS>BOND
     1     1     2    1
     2     1    28    1
     3     1    29    1
     4     1    30    1
     5     2     3    1
     6     2     4    1
     7     2     5    1
     8     3    31    1
     9     3    32    1
    10     3    33    1
    11     4    34    1
    12     4    35    1
    13     4    36    1
    14     5     6    1
    15     6     7    2
    16     6     8   am
    17     8    27    1
    18     8     9    1
    19     9    10    1
    20     9    37    1
    21     9    38    1
    22    10    11    1
    23    10    39    1
    24    10    40    1
    25    11    12    1
    26    11    13    1
    27    11    26    1
    28    12    41    1
    29    12    42    1
    30    12    43    1
    31    13    14   am
    32    13    44    1
    33    14    15    2
    34    14    16    1
    35    16    21   ar
    36    16    17   ar
    37    17    18   ar
    38    17    45    1
    39    18    19   ar
    40    18    46    1
    41    19    20   ar
    42    19    47    1
    43    20    21   ar
    44    20    48    1
    45    21    22    1
    46    22    23    1
    47    22    24    1
    48    22    25    1
    49    26    27    1
    50    26    49    1
    51    26    50    1
    52    27    51    1
    53    27    52    1
@<TRIPOS>SUBSTRUCTURE
     1 ZINC000187810810        1 TEMP              0 ****  ****    0 ROOT


##########                                Name:    ZINC000866034032
##########                DOCK_Rotatable_Bonds:                   4
##########                         Heavy_Atoms:                  23
##########                    Molecular_Weight:             383.242
##########                DOCK_Rotatable_Bonds:                   4
##########                       Formal_Charge:           0.0199999
##########                     HBond_Acceptors:                   6
##########                        HBond_Donors:                   1
##########                         Heavy_Atoms:                  23
##########                          Grid_Score:          -31.127937
##########                     Grid_vdw_energy:          -30.727888
##########                      Grid_es_energy:           -0.400050
##########           Internal_energy_repulsive:           14.906941

@<TRIPOS>MOLECULE
ZINC000866034032
 42 44 1 0 0
SMALL
USER_CHARGES


@<TRIPOS>ATOM
      1 C1         -7.2777    3.4832   50.7663 C.3     1  ZINC000866034032   -0.1300
      2 C2         -5.8989    3.0203   51.2416 C.3     1  ZINC000866034032   -0.0800
      3 C3         -5.9193    1.6104   51.8354 C.3     1  ZINC000866034032   -0.1300
      4 C4         -4.7879    3.2341   50.2020 C.3     1  ZINC000866034032    0.1400
      5 H5         -5.1533    3.2717   49.1758 H       1  ZINC000866034032    0.1100
      6 N6         -3.6504    2.3256   50.3664 N.am    1  ZINC000866034032   -0.7000
      7 C7         -2.9507    1.9200   49.2883 C.2     1  ZINC000866034032    0.5100
      8 O8         -3.2635    2.3059   48.1820 O.2     1  ZINC000866034032   -0.5300
      9 C9         -1.7795    0.9869   49.4575 C.3     1  ZINC000866034032   -0.1100
     10 C10        -0.8668    1.1046   48.2641 C.ar    1  ZINC000866034032   -0.0500
     11 C11         0.3995    1.6385   48.4128 C.ar    1  ZINC000866034032   -0.0500
     12 C12         1.2368    1.7470   47.3182 C.ar    1  ZINC000866034032   -0.0900
     13 C13         0.8076    1.3209   46.0744 C.ar    1  ZINC000866034032   -0.0500
     14 Br14        1.9529    1.4686   44.5770 Br      1  ZINC000866034032    0.0200
     15 C15        -0.4596    0.7862   45.9263 C.ar    1  ZINC000866034032   -0.0200
     16 N16        -0.9193    0.3296   44.5955 N.pl3   1  ZINC000866034032    0.0200
     17 O17        -2.0351   -0.1412   44.4652 O.2     1  ZINC000866034032   -0.1600
     18 O18        -0.1819    0.4246   43.6308 O.2     1  ZINC000866034032   -0.1300
     19 C19        -1.2942    0.6733   47.0220 C.ar    1  ZINC000866034032   -0.0300
     20 C20        -4.5623    4.6216   50.8246 C.3     1  ZINC000866034032   -0.1500
     21 H21        -5.0851    5.4542   50.3540 H       1  ZINC000866034032    0.1200
     22 C22        -3.0823    4.8865   51.1802 C.3     1  ZINC000866034032   -0.1400
     23 C23        -2.9641    4.4458   52.6557 C.3     1  ZINC000866034032    0.0500
     24 O24        -4.0349    3.4953   52.8438 O.3     1  ZINC000866034032   -0.3600
     25 C25        -5.1784    4.0481   52.1264 C.3     1  ZINC000866034032    0.0600
     26 H26        -5.8070    4.7188   52.7121 H       1  ZINC000866034032    0.1000
     27 H27        -7.2336    4.5383   50.4965 H       1  ZINC000866034032    0.0600
     28 H28        -7.5775    2.8980   49.8970 H       1  ZINC000866034032    0.0700
     29 H29        -8.0040    3.3428   51.5668 H       1  ZINC000866034032    0.0700
     30 H30        -6.0986    0.8846   51.0422 H       1  ZINC000866034032    0.0600
     31 H31        -4.9598    1.4016   52.3088 H       1  ZINC000866034032    0.0600
     32 H32        -6.7139    1.5404   52.5783 H       1  ZINC000866034032    0.0600
     33 H33        -3.4008    2.0159   51.2512 H       1  ZINC000866034032    0.4100
     34 H34        -1.2312    1.2521   50.3616 H       1  ZINC000866034032    0.1100
     35 H35        -2.1405   -0.0384   49.5392 H       1  ZINC000866034032    0.1200
     36 H36         0.7345    1.9712   49.3841 H       1  ZINC000866034032    0.1500
     37 H37         2.2260    2.1649   47.4343 H       1  ZINC000866034032    0.1600
     38 H38        -2.2834    0.2554   46.9065 H       1  ZINC000866034032    0.1600
     39 H39        -2.4252    4.2880   50.5492 H       1  ZINC000866034032    0.0800
     40 H40        -2.8492    5.9465   51.0785 H       1  ZINC000866034032    0.0800
     41 H41        -1.9995    3.9706   52.8338 H       1  ZINC000866034032    0.0900
     42 H42        -3.0951    5.3010   53.3188 H       1  ZINC000866034032    0.0600
@<TRIPOS>BOND
     1     1     2    1
     2     1    27    1
     3     1    28    1
     4     1    29    1
     5     2    25    1
     6     2     3    1
     7     2     4    1
     8     3    30    1
     9     3    31    1
    10     3    32    1
    11     4     5    1
    12     4     6    1
    13     4    20    1
    14     6     7   am
    15     6    33    1
    16     7     8    2
    17     7     9    1
    18     9    10    1
    19     9    34    1
    20     9    35    1
    21    10    19   ar
    22    10    11   ar
    23    11    12   ar
    24    11    36    1
    25    12    13   ar
    26    12    37    1
    27    13    14    1
    28    13    15   ar
    29    15    16    1
    30    15    19   ar
    31    16    17    2
    32    16    18    2
    33    19    38    1
    34    20    21    1
    35    20    25    1
    36    20    22    1
    37    22    23    1
    38    22    39    1
    39    22    40    1
    40    23    24    1
    41    23    41    1
    42    23    42    1
    43    24    25    1
    44    25    26    1
@<TRIPOS>SUBSTRUCTURE
     1 ZINC000866034032        1 TEMP              0 ****  ****    0 ROOT


##########                                Name:    ZINC000629379364
##########                DOCK_Rotatable_Bonds:                   5
##########                         Heavy_Atoms:                  23
##########                    Molecular_Weight:             386.261
##########                DOCK_Rotatable_Bonds:                   5
##########                       Formal_Charge:               -0.02
##########                     HBond_Acceptors:                   5
##########                        HBond_Donors:                   1
##########                         Heavy_Atoms:                  23
##########                          Grid_Score:          -31.092934
##########                     Grid_vdw_energy:          -26.836243
##########                      Grid_es_energy:           -4.256690
##########           Internal_energy_repulsive:           26.460945

@<TRIPOS>MOLECULE
ZINC000629379364
 44 46 1 0 0
SMALL
USER_CHARGES


@<TRIPOS>ATOM
      1 O1         -2.4733    1.6593   45.9789 O.co2   1  ZINC000629379364   -0.6800
      2 C2         -1.8206    0.8427   45.3515 C.2     1  ZINC000629379364    0.5000
      3 O3         -2.0354    0.6738   44.1632 O.co2   1  ZINC000629379364   -0.6900
      4 C4         -0.7441    0.0467   46.0432 C.3     1  ZINC000629379364   -0.1600
      5 H5         -0.5695   -0.8867   45.5079 H       1  ZINC000629379364    0.0800
      6 C6         -1.1599   -0.2496   47.4948 C.3     1  ZINC000629379364   -0.1300
      7 C7         -0.0310   -0.9289   48.2643 C.3     1  ZINC000629379364   -0.0100
      8 N8          1.2194   -0.1474   48.2070 N.4     1  ZINC000629379364   -0.3700
      9 H9          1.9447   -0.6227   48.7228 H       1  ZINC000629379364    0.4200
     10 C10         0.9987    1.1898   48.7737 C.3     1  ZINC000629379364   -0.0200
     11 C11         1.2957    1.1632   50.2742 C.3     1  ZINC000629379364    0.0300
     12 O12         1.2996    2.4987   50.7828 O.3     1  ZINC000629379364   -0.3200
     13 C13         0.1164    3.1670   50.7704 C.ar    1  ZINC000629379364    0.1600
     14 C14         0.0872    4.5316   51.0158 C.ar    1  ZINC000629379364   -0.2300
     15 C15        -1.1188    5.2101   51.0027 C.ar    1  ZINC000629379364    0.1500
     16 F16        -1.1485    6.5395   51.2416 F       1  ZINC000629379364   -0.1200
     17 C17        -2.2951    4.5269   50.7444 C.ar    1  ZINC000629379364   -0.1600
     18 C18        -2.2668    3.1655   50.5000 C.ar    1  ZINC000629379364   -0.0300
     19 Br19       -3.8752    2.2354   50.1476 Br      1  ZINC000629379364   -0.0100
     20 C20        -1.0633    2.4858   50.5067 C.ar    1  ZINC000629379364   -0.1300
     21 C21         1.6001   -0.0360   46.8081 C.3     1  ZINC000629379364   -0.0100
     22 H22         1.6200   -1.0236   46.3471 H       1  ZINC000629379364    0.1400
     23 C23         2.9087    0.7057   46.5168 C.3     1  ZINC000629379364   -0.1300
     24 C24         2.7351    1.1531   45.0399 C.3     1  ZINC000629379364   -0.1200
     25 C25         1.2100    1.2089   44.7769 C.3     1  ZINC000629379364   -0.1100
     26 C26         0.5397    0.8560   46.1075 C.3     1  ZINC000629379364   -0.0700
     27 H27         0.3959    1.7582   46.7020 H       1  ZINC000629379364    0.1000
     28 H28        -1.4177    0.6861   47.9907 H       1  ZINC000629379364    0.0800
     29 H29        -2.0325   -0.9027   47.4903 H       1  ZINC000629379364    0.1100
     30 H30        -0.3304   -1.0438   49.3061 H       1  ZINC000629379364    0.1200
     31 H31         0.1469   -1.9154   47.8366 H       1  ZINC000629379364    0.1300
     32 H32         1.6601    1.9052   48.2849 H       1  ZINC000629379364    0.1400
     33 H33        -0.0382    1.4856   48.6137 H       1  ZINC000629379364    0.1700
     34 H34         0.5289    0.5817   50.7862 H       1  ZINC000629379364    0.1100
     35 H35         2.2711    0.7071   50.4436 H       1  ZINC000629379364    0.0900
     36 H36         1.0049    5.0642   51.2172 H       1  ZINC000629379364    0.1500
     37 H37        -3.2359    5.0574   50.7340 H       1  ZINC000629379364    0.1500
     38 H38        -1.0422    1.4231   50.3154 H       1  ZINC000629379364    0.1500
     39 H39         3.0156    1.5705   47.1715 H       1  ZINC000629379364    0.0800
     40 H40         3.7625    0.0357   46.6187 H       1  ZINC000629379364    0.0900
     41 H41         3.1763    2.1389   44.8934 H       1  ZINC000629379364    0.0800
     42 H42         3.2037    0.4299   44.3725 H       1  ZINC000629379364    0.0800
     43 H43         0.9198    2.2073   44.4496 H       1  ZINC000629379364    0.0900
     44 H44         0.9290    0.4687   44.0277 H       1  ZINC000629379364    0.0800
@<TRIPOS>BOND
     1     1     2   ar
     2     2     3   ar
     3     2     4    1
     4     4     5    1
     5     4    26    1
     6     4     6    1
     7     6     7    1
     8     6    28    1
     9     6    29    1
    10     7     8    1
    11     7    30    1
    12     7    31    1
    13     8     9    1
    14     8    10    1
    15     8    21    1
    16    10    11    1
    17    10    32    1
    18    10    33    1
    19    11    12    1
    20    11    34    1
    21    11    35    1
    22    12    13    1
    23    13    20   ar
    24    13    14   ar
    25    14    15   ar
    26    14    36    1
    27    15    16    1
    28    15    17   ar
    29    17    18   ar
    30    17    37    1
    31    18    19    1
    32    18    20   ar
    33    20    38    1
    34    21    22    1
    35    21    26    1
    36    21    23    1
    37    23    24    1
    38    23    39    1
    39    23    40    1
    40    24    25    1
    41    24    41    1
    42    24    42    1
    43    25    26    1
    44    25    43    1
    45    25    44    1
    46    26    27    1
@<TRIPOS>SUBSTRUCTURE
     1 ZINC000629379364        1 TEMP              0 ****  ****    0 ROOT


##########                                Name:    ZINC000962730513
##########                DOCK_Rotatable_Bonds:                   6
##########                         Heavy_Atoms:                  24
##########                    Molecular_Weight:             342.465
##########                DOCK_Rotatable_Bonds:                   6
##########                       Formal_Charge:         -0.00999998
##########                     HBond_Acceptors:                   6
##########                        HBond_Donors:                   1
##########                         Heavy_Atoms:                  24
##########                          Grid_Score:          -31.080671
##########                     Grid_vdw_energy:          -30.100378
##########                      Grid_es_energy:           -0.980293
##########           Internal_energy_repulsive:            9.332553

@<TRIPOS>MOLECULE
ZINC000962730513
 46 49 1 0 0
SMALL
USER_CHARGES


@<TRIPOS>ATOM
      1 C1        -13.8906    0.7131   52.4259 C.3     1  ZINC000962730513   -0.1400
      2 C2        -13.2646    1.3302   53.6783 C.3     1  ZINC000962730513   -0.0800
      3 C3        -12.5728    0.2550   54.4760 C.2     1  ZINC000962730513   -0.0100
      4 C4        -11.2592   -0.0803   54.3040 C.2     1  ZINC000962730513   -0.2800
      5 C5        -10.3426    0.5384   53.3419 C.2     1  ZINC000962730513    0.6000
      6 O6        -10.7769    1.0280   52.3158 O.2     1  ZINC000962730513   -0.5200
      7 N7         -9.0188    0.5653   53.5936 N.am    1  ZINC000962730513   -0.7000
      8 C8         -8.1025    1.1821   52.6312 C.3     1  ZINC000962730513    0.1200
      9 H9         -8.5308    1.9732   52.0158 H       1  ZINC000962730513    0.1400
     10 C10        -7.0453    0.2825   51.9879 C.3     1  ZINC000962730513   -0.1700
     11 H11        -7.0442   -0.7856   52.2056 H       1  ZINC000962730513    0.1200
     12 C12        -6.4101    0.7421   50.6581 C.3     1  ZINC000962730513    0.0700
     13 N13        -5.2667    1.5986   51.0656 N.3     1  ZINC000962730513   -0.5000
     14 C14        -4.8668    2.4972   49.9744 C.3     1  ZINC000962730513    0.1100
     15 C15        -3.6009    1.9832   49.3387 C.ar    1  ZINC000962730513    0.3200
     16 N16        -3.4011    2.1865   48.0519 N.ar    1  ZINC000962730513   -0.5100
     17 C17        -2.3014    1.7496   47.4594 C.ar    1  ZINC000962730513    0.1500
     18 C18        -1.3548    1.0711   48.2107 C.ar    1  ZINC000962730513   -0.1900
     19 C19        -0.0887    0.5575   47.5751 C.3     1  ZINC000962730513   -0.1100
     20 C20        -1.6005    0.8767   49.5608 C.ar    1  ZINC000962730513    0.1500
     21 N21        -2.7208    1.3469   50.0853 N.ar    1  ZINC000962730513   -0.5000
     22 C22        -5.7829    2.3681   52.2269 C.3     1  ZINC000962730513    0.0700
     23 C23        -6.6369    1.3264   53.0458 C.3     1  ZINC000962730513   -0.1700
     24 H24        -6.2914    1.0651   54.0460 H       1  ZINC000962730513    0.1300
     25 S25       -10.8445   -1.3723   55.4222 S.3     1  ZINC000962730513    0.1900
     26 C26       -12.4292   -1.3974   56.0541 C.2     1  ZINC000962730513   -0.2200
     27 C27       -13.1986   -0.4822   55.4530 C.2     1  ZINC000962730513   -0.1500
     28 H28       -13.1105    0.2549   51.8180 H       1  ZINC000962730513    0.0600
     29 H29       -14.6161   -0.0458   52.7186 H       1  ZINC000962730513    0.0500
     30 H30       -14.3910    1.4908   51.8490 H       1  ZINC000962730513    0.0600
     31 H31       -12.5391    2.0892   53.3856 H       1  ZINC000962730513    0.1000
     32 H32       -14.0446    1.7885   54.2862 H       1  ZINC000962730513    0.0700
     33 H33        -8.6728    0.1761   54.4120 H       1  ZINC000962730513    0.4000
     34 H34        -6.0570   -0.1174   50.0883 H       1  ZINC000962730513    0.0900
     35 H35        -7.1272    1.3183   50.0734 H       1  ZINC000962730513    0.0500
     36 H36        -5.6592    2.5360   49.2268 H       1  ZINC000962730513    0.1000
     37 H37        -4.6936    3.4971   50.3723 H       1  ZINC000962730513    0.0700
     38 H38        -2.1439    1.9193   46.4045 H       1  ZINC000962730513    0.1700
     39 H39         0.6847    1.3232   47.6355 H       1  ZINC000962730513    0.0800
     40 H40         0.2444   -0.3376   48.1005 H       1  ZINC000962730513    0.0700
     41 H41        -0.2793    0.3153   46.5296 H       1  ZINC000962730513    0.0700
     42 H42        -0.8856    0.3520   50.1772 H       1  ZINC000962730513    0.1700
     43 H43        -4.9575    2.7328   52.8383 H       1  ZINC000962730513    0.0800
     44 H44        -6.4018    3.1987   51.8877 H       1  ZINC000962730513    0.0600
     45 H45       -12.7654   -2.0604   56.8375 H       1  ZINC000962730513    0.1700
     46 H46       -14.2375   -0.3389   55.7109 H       1  ZINC000962730513    0.1500
@<TRIPOS>BOND
     1     1     2    1
     2     1    28    1
     3     1    29    1
     4     1    30    1
     5     2     3    1
     6     2    31    1
     7     2    32    1
     8     3    27    1
     9     3     4    2
    10     4     5    1
    11     4    25    1
    12     5     6    2
    13     5     7   am
    14     7     8    1
    15     7    33    1
    16     8     9    1
    17     8    23    1
    18     8    10    1
    19    10    11    1
    20    10    23    1
    21    10    12    1
    22    12    13    1
    23    12    34    1
    24    12    35    1
    25    13    14    1
    26    13    22    1
    27    14    15    1
    28    14    36    1
    29    14    37    1
    30    15    21   ar
    31    15    16   ar
    32    16    17   ar
    33    17    18   ar
    34    17    38    1
    35    18    19    1
    36    18    20   ar
    37    19    39    1
    38    19    40    1
    39    19    41    1
    40    20    21   ar
    41    20    42    1
    42    22    23    1
    43    22    43    1
    44    22    44    1
    45    23    24    1
    46    25    26    1
    47    26    27    2
    48    26    45    1
    49    27    46    1
@<TRIPOS>SUBSTRUCTURE
     1 ZINC000962730513        1 TEMP              0 ****  ****    0 ROOT


##########                                Name:    ZINC000288921983
##########                DOCK_Rotatable_Bonds:                   6
##########                         Heavy_Atoms:                  26
##########                    Molecular_Weight:             356.428
##########                DOCK_Rotatable_Bonds:                   6
##########                       Formal_Charge:           0.0199997
##########                     HBond_Acceptors:                   8
##########                        HBond_Donors:                   1
##########                         Heavy_Atoms:                  26
##########                          Grid_Score:          -30.992954
##########                     Grid_vdw_energy:          -30.648241
##########                      Grid_es_energy:           -0.344714
##########           Internal_energy_repulsive:           61.556087

@<TRIPOS>MOLECULE
ZINC000288921983
 50 53 1 0 0
SMALL
USER_CHARGES


@<TRIPOS>ATOM
      1 C1         -1.9728    0.7924   44.4448 C.3     1  ZINC000288921983   -0.1400
      2 C2         -0.9922    0.0139   45.3241 C.3     1  ZINC000288921983   -0.0500
      3 C3         -0.7988    0.7434   46.6285 C.ar    1  ZINC000288921983    0.3000
      4 N4         -0.4396    0.0600   47.6966 N.ar    1  ZINC000288921983   -0.5000
      5 C5         -0.2596    0.6633   48.8599 C.ar    1  ZINC000288921983    0.1300
      6 C6         -0.4552    2.0391   48.9447 C.ar    1  ZINC000288921983    0.0500
      7 N7         -0.2750    2.7170   50.1563 N.am    1  ZINC000288921983   -0.6700
      8 C8         -1.3412    3.2062   50.8198 C.2     1  ZINC000288921983    0.7100
      9 O9         -2.4596    3.0591   50.3661 O.2     1  ZINC000288921983   -0.5500
     10 N10        -1.1677    3.8588   51.9863 N.am    1  ZINC000288921983   -0.6200
     11 C11         0.1775    4.0447   52.5471 C.3     1  ZINC000288921983    0.1100
     12 C12         0.3933    5.5353   52.8270 C.3     1  ZINC000288921983   -0.1400
     13 C13        -0.7370    6.0513   53.7205 C.3     1  ZINC000288921983   -0.1200
     14 C14        -2.0764    5.8843   52.9991 C.3     1  ZINC000288921983   -0.1300
     15 C15        -2.3197    4.4030   52.7181 C.3     1  ZINC000288921983    0.2700
     16 H16        -2.4334    3.8663   53.6600 H       1  ZINC000288921983    0.1100
     17 C17        -3.5700    4.2442   51.8919 C.2     1  ZINC000288921983    0.1700
     18 N18        -4.0135    5.0799   50.9965 N.2     1  ZINC000288921983   -0.2500
     19 N19        -5.1043    4.6232   50.4894 N.2     1  ZINC000288921983   -0.2700
     20 C20        -5.3937    3.4805   51.0441 C.2     1  ZINC000288921983    0.1800
     21 C21        -6.5886    2.6161   50.7343 C.3     1  ZINC000288921983   -0.0300
     22 C22        -6.2792    1.1098   50.7470 C.3     1  ZINC000288921983   -0.1200
     23 C23        -6.6178    1.1328   52.2469 C.3     1  ZINC000288921983   -0.1400
     24 C24        -7.4954    2.3602   51.9496 C.3     1  ZINC000288921983   -0.1200
     25 O25        -4.4286    3.2118   51.9394 O.3     1  ZINC000288921983   -0.2200
     26 C26        -0.8342    2.7232   47.7929 C.ar    1  ZINC000288921983    0.1600
     27 N27        -0.9885    2.0471   46.6665 N.ar    1  ZINC000288921983   -0.5000
     28 H28        -2.1127    0.2646   43.5014 H       1  ZINC000288921983    0.0700
     29 H29        -2.9306    0.8795   44.9578 H       1  ZINC000288921983    0.0600
     30 H30        -1.5737    1.7876   44.2488 H       1  ZINC000288921983    0.0600
     31 H31        -1.3912   -0.9814   45.5202 H       1  ZINC000288921983    0.0900
     32 H32        -0.0344   -0.0732   44.8111 H       1  ZINC000288921983    0.0900
     33 H33         0.0344    0.0968   49.7312 H       1  ZINC000288921983    0.1700
     34 H34         0.6173    2.8344   50.5183 H       1  ZINC000288921983    0.4100
     35 H35         0.2671    3.4818   53.4762 H       1  ZINC000288921983    0.0800
     36 H36         0.9228    3.6955   51.8325 H       1  ZINC000288921983    0.0800
     37 H37         1.3491    5.6760   53.3317 H       1  ZINC000288921983    0.0900
     38 H38         0.3936    6.0858   51.8862 H       1  ZINC000288921983    0.0700
     39 H39        -0.7524    5.4838   54.6509 H       1  ZINC000288921983    0.0700
     40 H40        -0.5726    7.1060   53.9413 H       1  ZINC000288921983    0.0800
     41 H41        -2.8784    6.2734   53.6264 H       1  ZINC000288921983    0.0900
     42 H42        -2.0528    6.4315   52.0567 H       1  ZINC000288921983    0.0900
     43 H43        -7.1300    2.9445   49.8471 H       1  ZINC000288921983    0.1000
     44 H44        -6.9733    0.5165   50.1519 H       1  ZINC000288921983    0.1000
     45 H45        -5.2350    0.8768   50.5386 H       1  ZINC000288921983    0.0800
     46 H46        -7.1828    0.2625   52.5804 H       1  ZINC000288921983    0.0700
     47 H47        -5.7614    1.3525   52.8845 H       1  ZINC000288921983    0.1000
     48 H48        -7.4330    3.1366   52.7122 H       1  ZINC000288921983    0.0700
     49 H49        -8.5220    2.1086   51.6833 H       1  ZINC000288921983    0.1000
     50 H50        -0.9960    3.7907   47.8178 H       1  ZINC000288921983    0.1800
@<TRIPOS>BOND
     1     1     2    1
     2     1    28    1
     3     1    29    1
     4     1    30    1
     5     2     3    1
     6     2    31    1
     7     2    32    1
     8     3    27   ar
     9     3     4   ar
    10     4     5   ar
    11     5     6   ar
    12     5    33    1
    13     6     7    1
    14     6    26   ar
    15     7     8   am
    16     7    34    1
    17     8     9    2
    18     8    10   am
    19    10    15    1
    20    10    11    1
    21    11    12    1
    22    11    35    1
    23    11    36    1
    24    12    13    1
    25    12    37    1
    26    12    38    1
    27    13    14    1
    28    13    39    1
    29    13    40    1
    30    14    15    1
    31    14    41    1
    32    14    42    1
    33    15    16    1
    34    15    17    1
    35    17    25    1
    36    17    18    2
    37    18    19    1
    38    19    20    2
    39    20    21    1
    40    20    25    1
    41    21    24    1
    42    21    22    1
    43    21    43    1
    44    22    23    1
    45    22    44    1
    46    22    45    1
    47    23    24    1
    48    23    46    1
    49    23    47    1
    50    24    48    1
    51    24    49    1
    52    26    27   ar
    53    26    50    1
@<TRIPOS>SUBSTRUCTURE
     1 ZINC000288921983        1 TEMP              0 ****  ****    0 ROOT


##########                                Name:    ZINC000013551438
##########                DOCK_Rotatable_Bonds:                   5
##########                         Heavy_Atoms:                  27
##########                    Molecular_Weight:             377.467
##########                DOCK_Rotatable_Bonds:                   5
##########                       Formal_Charge:          -0.0300005
##########                     HBond_Acceptors:                   6
##########                        HBond_Donors:                   1
##########                         Heavy_Atoms:                  27
##########                          Grid_Score:          -30.982977
##########                     Grid_vdw_energy:          -31.429956
##########                      Grid_es_energy:            0.446979
##########           Internal_energy_repulsive:           17.089966

@<TRIPOS>MOLECULE
ZINC000013551438
 46 49 1 0 0
SMALL
USER_CHARGES


@<TRIPOS>ATOM
      1 C1        -11.2333   -4.1655   57.7448 C.3     1  <0>         0.0300
      2 O2        -10.6145   -3.8382   58.9906 O.3     1  <0>        -0.3200
      3 C3        -10.1091   -2.5821   59.1177 C.ar    1  <0>         0.1000
      4 C4         -9.9050   -2.0414   60.3841 C.ar    1  <0>        -0.1800
      5 C5         -9.3941   -0.7708   60.5299 C.ar    1  <0>        -0.0900
      6 C6         -9.0769   -0.0154   59.4056 C.ar    1  <0>         0.0700
      7 C7         -9.2818   -0.5598   58.1263 C.ar    1  <0>        -0.0400
      8 C8         -9.7948   -1.8493   57.9897 C.ar    1  <0>        -0.1100
      9 C9         -8.8550    0.4743   57.1704 C.2     1  <0>        -0.1200
     10 C10        -8.8792    0.3754   55.6903 C.2     1  <0>         0.1700
     11 C11        -9.9363   -0.1006   55.0060 C.2     1  <0>        -0.3000
     12 S12        -9.5451   -0.0429   53.2894 S.3     1  <0>         0.2500
     13 C13        -8.0072    0.6113   53.6467 C.2     1  <0>         0.2400
     14 N14        -7.0502    0.9487   52.6990 N.am    1  <0>        -0.6200
     15 C15        -6.3233    2.0739   52.8462 C.2     1  <0>         0.5600
     16 O16        -6.5045    2.7928   53.8097 O.2     1  <0>        -0.5000
     17 C17        -5.3059    2.4339   51.8365 C.ar    1  <0>        -0.1400
     18 C18        -5.1306    1.6379   50.7032 C.ar    1  <0>        -0.0800
     19 C19        -4.1796    1.9799   49.7642 C.ar    1  <0>        -0.1300
     20 C20        -3.4003    3.1090   49.9440 C.ar    1  <0>        -0.0800
     21 C21        -3.5684    3.9020   51.0652 C.ar    1  <0>        -0.1300
     22 C22        -4.5199    3.5747   52.0090 C.ar    1  <0>        -0.0500
     23 N23        -7.8628    0.7537   54.9257 N.2     1  <0>        -0.5000
     24 C24        -8.4366    1.5341   57.9025 C.2     1  <0>         0.1300
     25 C25        -7.9108    2.8271   57.3344 C.3     1  <0>        -0.0900
     26 N26        -8.5641    1.2541   59.2353 N.pl3   1  <0>        -0.4800
     27 C27        -8.2090    2.1689   60.3231 C.3     1  <0>         0.0800
     28 H28       -10.5069   -4.0592   56.9392 H       1  <0>         0.0500
     29 H29       -11.5925   -5.1942   57.7768 H       1  <0>         0.1000
     30 H30       -12.0727   -3.4929   57.5683 H       1  <0>         0.0500
     31 H31       -10.1500   -2.6235   61.2602 H       1  <0>         0.1300
     32 H32        -9.2400   -0.3607   61.5171 H       1  <0>         0.1200
     33 H33        -9.9530   -2.2695   57.0075 H       1  <0>         0.1300
     34 H34       -10.8620   -0.4556   55.4344 H       1  <0>         0.1800
     35 H35        -6.9048    0.3744   51.9308 H       1  <0>         0.4200
     36 H36        -5.7380    0.7562   50.5619 H       1  <0>         0.1300
     37 H37        -4.0427    1.3648   48.8872 H       1  <0>         0.1300
     38 H38        -2.6571    3.3722   49.2059 H       1  <0>         0.1300
     39 H39        -2.9566    4.7818   51.1997 H       1  <0>         0.1300
     40 H40        -4.6504    4.1947   52.8835 H       1  <0>         0.1400
     41 H41        -8.7217    3.5527   57.2715 H       1  <0>         0.0800
     42 H42        -7.1250    3.2156   57.9823 H       1  <0>         0.0700
     43 H43        -7.5052    2.6481   56.3386 H       1  <0>         0.0800
     44 H44        -9.0745    2.7787   60.5820 H       1  <0>         0.0700
     45 H45        -7.8962    1.5934   61.1943 H       1  <0>         0.0800
     46 H46        -7.3921    2.8152   60.0021 H       1  <0>         0.0800
@<TRIPOS>BOND
     1     1     2    1
     2     1    28    1
     3     1    29    1
     4     1    30    1
     5     2     3    1
     6     3     8   ar
     7     3     4   ar
     8     4     5   ar
     9     4    31    1
    10     5     6   ar
    11     5    32    1
    12     6    26    1
    13     6     7   ar
    14     7     8   ar
    15     7     9    1
    16     8    33    1
    17     9    10    1
    18     9    24    2
    19    10    23    1
    20    10    11    2
    21    11    12    1
    22    11    34    1
    23    12    13    1
    24    13    14    1
    25    13    23    2
    26    14    15   am
    27    14    35    1
    28    15    16    2
    29    15    17    1
    30    17    22   ar
    31    17    18   ar
    32    18    19   ar
    33    18    36    1
    34    19    20   ar
    35    19    37    1
    36    20    21   ar
    37    20    38    1
    38    21    22   ar
    39    21    39    1
    40    22    40    1
    41    24    25    1
    42    24    26    1
    43    25    41    1
    44    25    42    1
    45    25    43    1
    46    26    27    1
    47    27    44    1
    48    27    45    1
    49    27    46    1
@<TRIPOS>SUBSTRUCTURE
     1 <0>         1 TEMP              0 ****  ****    0 ROOT


##########                                Name:    ZINC000338927927
##########                DOCK_Rotatable_Bonds:                   9
##########                         Heavy_Atoms:                  23
##########                    Molecular_Weight:             336.286
##########                DOCK_Rotatable_Bonds:                   9
##########                       Formal_Charge:         -0.00999999
##########                     HBond_Acceptors:                   9
##########                        HBond_Donors:                   2
##########                         Heavy_Atoms:                  23
##########                          Grid_Score:          -30.947937
##########                     Grid_vdw_energy:          -30.712627
##########                      Grid_es_energy:           -0.235309
##########           Internal_energy_repulsive:           15.483727

@<TRIPOS>MOLECULE
ZINC000338927927
 39 39 1 0 0
SMALL
USER_CHARGES


@<TRIPOS>ATOM
      1 C1          2.0190    0.0747   47.1714 C.3     1  <0>        -0.1600
      2 C2          0.9227    0.7902   47.9632 C.3     1  <0>        -0.1100
      3 C3         -0.4170    0.6251   47.2429 C.3     1  <0>        -0.1000
      4 H4         -0.2920    0.8574   46.1853 H       1  <0>         0.1400
      5 C5         -1.4308    1.5625   47.8467 C.2     1  <0>         0.5200
      6 O6         -2.0595    2.3164   47.1343 O.2     1  <0>        -0.4700
      7 N7         -1.6389    1.5632   49.1783 N.am    1  <0>        -0.6700
      8 C8         -2.5802    2.4335   49.7389 C.ar    1  <0>         0.2200
      9 C9         -2.1580    3.5420   50.4610 C.ar    1  <0>        -0.2300
     10 C10        -3.0886    4.4034   51.0159 C.ar    1  <0>         0.1700
     11 F11        -2.6756    5.4812   51.7179 F       1  <0>        -0.1300
     12 C12        -4.4411    4.1624   50.8519 C.ar    1  <0>        -0.2500
     13 C13        -4.8679    3.0546   50.1302 C.ar    1  <0>         0.2600
     14 N14        -6.2334    2.8114   49.9653 N.pl3   1  <0>        -0.7400
     15 C15        -7.0756    2.5415   51.1332 C.3     1  <0>         0.0800
     16 C16        -6.8625    1.0980   51.5930 C.3     1  <0>         0.4500
     17 F17        -6.7658    0.2621   50.4754 F       1  <0>        -0.1800
     18 F18        -5.6826    1.0159   52.3402 F       1  <0>        -0.1700
     19 F19        -7.9442    0.6959   52.3839 F       1  <0>        -0.1800
     20 C20        -3.9363    2.1926   49.5687 C.ar    1  <0>        -0.2000
     21 C21        -0.8957   -0.7961   47.3919 C.2     1  <0>         0.4600
     22 O22        -0.7019   -1.3938   48.4239 O.2     1  <0>        -0.4600
     23 O23        -1.5373   -1.3979   46.3782 O.3     1  <0>        -0.3500
     24 C24        -1.6881   -0.6384   45.1499 C.3     1  <0>         0.0300
     25 H25         2.0875    0.5071   46.1732 H       1  <0>         0.0600
     26 H26         2.9734    0.1923   47.6846 H       1  <0>         0.0600
     27 H27         1.7772   -0.9853   47.0923 H       1  <0>         0.0800
     28 H28         0.8543    0.3578   48.9614 H       1  <0>         0.0800
     29 H29         1.1645    1.8501   48.0422 H       1  <0>         0.0800
     30 H30        -1.1362    0.9602   49.7480 H       1  <0>         0.4200
     31 H31        -1.1027    3.7318   50.5901 H       1  <0>         0.1400
     32 H32        -5.1656    4.8358   51.2856 H       1  <0>         0.1400
     33 H33        -6.6239    2.8213   49.0776 H       1  <0>         0.4100
     34 H34        -6.8070    3.2233   51.9402 H       1  <0>         0.1100
     35 H35        -8.1226    2.6875   50.8676 H       1  <0>         0.1100
     36 H36        -4.2662    1.3310   49.0074 H       1  <0>         0.1500
     37 H37        -2.2229   -1.2393   44.4143 H       1  <0>         0.1000
     38 H38        -2.2509    0.2728   45.3529 H       1  <0>         0.0600
     39 H39        -0.7039   -0.3783   44.7603 H       1  <0>         0.0600
@<TRIPOS>BOND
     1     1     2    1
     2     1    25    1
     3     1    26    1
     4     1    27    1
     5     2     3    1
     6     2    28    1
     7     2    29    1
     8     3     4    1
     9     3     5    1
    10     3    21    1
    11     5     6    2
    12     5     7   am
    13     7     8    1
    14     7    30    1
    15     8    20   ar
    16     8     9   ar
    17     9    10   ar
    18     9    31    1
    19    10    11    1
    20    10    12   ar
    21    12    13   ar
    22    12    32    1
    23    13    14    1
    24    13    20   ar
    25    14    15    1
    26    14    33    1
    27    15    16    1
    28    15    34    1
    29    15    35    1
    30    16    17    1
    31    16    18    1
    32    16    19    1
    33    20    36    1
    34    21    22    2
    35    21    23    1
    36    23    24    1
    37    24    37    1
    38    24    38    1
    39    24    39    1
@<TRIPOS>SUBSTRUCTURE
     1 <0>         1 TEMP              0 ****  ****    0 ROOT


##########                                Name:    ZINC000053543817
##########                DOCK_Rotatable_Bonds:                   7
##########                         Heavy_Atoms:                  25
##########                    Molecular_Weight:             350.458
##########                DOCK_Rotatable_Bonds:                   7
##########                       Formal_Charge:           0.0199998
##########                     HBond_Acceptors:                   6
##########                        HBond_Donors:                   2
##########                         Heavy_Atoms:                  25
##########                          Grid_Score:          -30.899323
##########                     Grid_vdw_energy:          -31.157013
##########                      Grid_es_energy:            0.257691
##########           Internal_energy_repulsive:           29.728992

@<TRIPOS>MOLECULE
ZINC000053543817
 55 56 1 0 0
SMALL
USER_CHARGES


@<TRIPOS>ATOM
      1 C1         -1.4966   -0.3738   42.9125 C.3     1  ZINC000053543817   -0.0700
      2 C2         -0.4590    0.1106   43.8922 C.2     1  ZINC000053543817   -0.0200
      3 C3         -0.6634    0.3472   45.2031 C.2     1  ZINC000053543817   -0.1800
      4 C4          0.5661    0.7811   45.7305 C.2     1  ZINC000053543817   -0.1900
      5 C5          1.4550    0.7857   44.7160 C.2     1  ZINC000053543817    0.0000
      6 C6          2.9013    1.1904   44.8658 C.3     1  ZINC000053543817   -0.0300
      7 C7          3.2585    1.1698   46.3568 C.3     1  ZINC000053543817   -0.0500
      8 C8          3.2917   -0.2771   46.8530 C.3     1  ZINC000053543817   -0.1500
      9 C9          4.6332    1.8102   46.5604 C.3     1  ZINC000053543817   -0.1400
     10 C10         2.2080    1.9559   47.1461 C.3     1  ZINC000053543817   -0.1200
     11 C11         0.8851    1.1790   47.1480 C.3     1  ZINC000053543817    0.2200
     12 H12         0.9841    0.2871   47.7666 H       1  ZINC000053543817    0.1000
     13 N13        -0.1854    2.0288   47.6752 N.am    1  ZINC000053543817   -0.7100
     14 C14        -0.7214    1.7657   48.8835 C.2     1  ZINC000053543817    0.5100
     15 O15        -0.3184    0.8245   49.5337 O.2     1  ZINC000053543817   -0.5300
     16 C16        -1.8214    2.6410   49.4266 C.3     1  ZINC000053543817    0.1400
     17 H17        -2.3081    3.1651   48.6043 H       1  ZINC000053543817    0.1200
     18 C18        -1.2279    3.6604   50.4010 C.3     1  ZINC000053543817   -0.1600
     19 N19        -2.8048    1.8111   50.1271 N.am    1  ZINC000053543817   -0.7000
     20 C20        -4.0418    2.2896   50.3667 C.2     1  ZINC000053543817    0.6600
     21 O21        -4.3408    3.4099   50.0033 O.2     1  ZINC000053543817   -0.5700
     22 O22        -4.9460    1.5264   51.0089 O.3     1  ZINC000053543817   -0.3600
     23 C23        -6.0751    2.2102   51.6139 C.3     1  ZINC000053543817    0.1400
     24 C24        -6.8454    1.2333   52.5044 C.3     1  ZINC000053543817   -0.1800
     25 C25        -5.5691    3.3807   52.4593 C.3     1  ZINC000053543817   -0.1400
     26 C26        -7.0005    2.7372   50.5152 C.3     1  ZINC000053543817   -0.1800
     27 O27         0.8289    0.3743   43.6070 O.3     1  ZINC000053543817   -0.1700
     28 H28        -1.0440   -0.4798   41.9266 H       1  ZINC000053543817    0.0800
     29 H29        -1.8834   -1.3387   43.2403 H       1  ZINC000053543817    0.0800
     30 H30        -2.3130    0.3467   42.8619 H       1  ZINC000053543817    0.0800
     31 H31        -1.5909    0.2274   45.7433 H       1  ZINC000053543817    0.1400
     32 H32         3.5363    0.4870   44.3270 H       1  ZINC000053543817    0.0900
     33 H33         3.0435    2.1955   44.4687 H       1  ZINC000053543817    0.0900
     34 H34         4.0404   -0.8365   46.2921 H       1  ZINC000053543817    0.0600
     35 H35         3.5456   -0.2919   47.9129 H       1  ZINC000053543817    0.0600
     36 H36         2.3127   -0.7336   46.7076 H       1  ZINC000053543817    0.0600
     37 H37         4.6099    2.8408   46.2064 H       1  ZINC000053543817    0.0600
     38 H38         4.8873    1.7956   47.6202 H       1  ZINC000053543817    0.0600
     39 H39         5.3815    1.2501   45.9996 H       1  ZINC000053543817    0.0600
     40 H40         2.5508    2.0923   48.1717 H       1  ZINC000053543817    0.0800
     41 H41         2.0572    2.9298   46.6805 H       1  ZINC000053543817    0.0700
     42 H42        -0.5084    2.7809   47.1547 H       1  ZINC000053543817    0.4000
     43 H43        -0.4961    4.2777   49.8799 H       1  ZINC000053543817    0.0800
     44 H44        -2.0235    4.2934   50.7939 H       1  ZINC000053543817    0.0800
     45 H45        -0.7411    3.1361   51.2234 H       1  ZINC000053543817    0.0700
     46 H46        -2.5657    0.9173   50.4182 H       1  ZINC000053543817    0.4200
     47 H47        -6.1862    0.8579   53.2871 H       1  ZINC000053543817    0.0600
     48 H48        -7.6931    1.7466   52.9585 H       1  ZINC000053543817    0.0700
     49 H49        -7.2059    0.3994   51.9020 H       1  ZINC000053543817    0.0900
     50 H50        -5.0203    4.0767   51.8249 H       1  ZINC000053543817    0.0700
     51 H51        -6.4168    3.8940   52.9134 H       1  ZINC000053543817    0.0800
     52 H52        -4.9099    3.0053   53.2420 H       1  ZINC000053543817    0.0700
     53 H53        -7.3609    1.9033   49.9129 H       1  ZINC000053543817    0.0900
     54 H54        -7.8480    3.2505   50.9693 H       1  ZINC000053543817    0.0700
     55 H55        -6.4516    3.4331   49.8808 H       1  ZINC000053543817    0.0600
@<TRIPOS>BOND
     1     1     2    1
     2     1    28    1
     3     1    29    1
     4     1    30    1
     5     2    27    1
     6     2     3    2
     7     3     4    1
     8     3    31    1
     9     4    11    1
    10     4     5    2
    11     5     6    1
    12     5    27    1
    13     6     7    1
    14     6    32    1
    15     6    33    1
    16     7     8    1
    17     7     9    1
    18     7    10    1
    19     8    34    1
    20     8    35    1
    21     8    36    1
    22     9    37    1
    23     9    38    1
    24     9    39    1
    25    10    11    1
    26    10    40    1
    27    10    41    1
    28    11    12    1
    29    11    13    1
    30    13    14   am
    31    13    42    1
    32    14    15    2
    33    14    16    1
    34    16    17    1
    35    16    18    1
    36    16    19    1
    37    18    43    1
    38    18    44    1
    39    18    45    1
    40    19    20   am
    41    19    46    1
    42    20    21    2
    43    20    22    1
    44    22    23    1
    45    23    24    1
    46    23    25    1
    47    23    26    1
    48    24    47    1
    49    24    48    1
    50    24    49    1
    51    25    50    1
    52    25    51    1
    53    25    52    1
    54    26    53    1
    55    26    54    1
    56    26    55    1
@<TRIPOS>SUBSTRUCTURE
     1 ZINC000053543817        1 TEMP              0 ****  ****    0 ROOT


##########                                Name:    ZINC001162683355
##########                DOCK_Rotatable_Bonds:                   5
##########                         Heavy_Atoms:                  25
##########                    Molecular_Weight:             336.437
##########                DOCK_Rotatable_Bonds:                   5
##########                       Formal_Charge:          -0.0100002
##########                     HBond_Acceptors:                   5
##########                        HBond_Donors:                   1
##########                         Heavy_Atoms:                  25
##########                          Grid_Score:          -30.880207
##########                     Grid_vdw_energy:          -31.900490
##########                      Grid_es_energy:            1.020282
##########           Internal_energy_repulsive:           12.179059

@<TRIPOS>MOLECULE
ZINC001162683355
 49 52 1 0 0
SMALL
USER_CHARGES


@<TRIPOS>ATOM
      1 C1          2.5267    0.2729   47.9739 C.3     1  ZINC001162683355    0.0200
      2 N2          1.1223    0.1139   48.3741 N.3     1  ZINC001162683355   -0.5400
      3 C3          0.4862   -0.9881   47.6377 C.3     1  ZINC001162683355    0.0100
      4 C4         -0.9546   -1.1571   48.1272 C.3     1  ZINC001162683355    0.0600
      5 O5         -1.6560    0.0786   47.9649 O.3     1  ZINC001162683355   -0.3800
      6 C6         -1.0640    1.1735   48.6693 C.3     1  ZINC001162683355    0.0800
      7 H7         -1.0639    0.9609   49.7384 H       1  ZINC001162683355    0.0700
      8 C8         -1.8678    2.4475   48.4018 C.3     1  ZINC001162683355    0.1500
      9 N9         -2.8712    2.6221   49.4549 N.pl3   1  ZINC001162683355   -0.7300
     10 C10        -2.5085    3.1819   50.6750 C.ar    1  ZINC001162683355    0.4300
     11 C11        -3.4703    3.3658   51.6711 C.ar    1  ZINC001162683355   -0.0100
     12 C12        -3.0691    3.9346   52.8937 C.ar    1  ZINC001162683355   -0.0400
     13 C13        -1.7244    4.2918   53.0607 C.ar    1  ZINC001162683355   -0.1800
     14 C14        -0.8531    4.0758   52.0330 C.ar    1  ZINC001162683355    0.1000
     15 N15        -1.2531    3.5389   50.8904 N.ar    1  ZINC001162683355   -0.5400
     16 C16        -4.2683    4.0010   53.7234 C.2     1  ZINC001162683355   -0.2200
     17 C17        -5.2797    3.4994   52.9922 C.2     1  ZINC001162683355    0.0800
     18 N18        -4.8193    3.1106   51.7666 N.pl3   1  ZINC001162683355   -0.4600
     19 C19        -5.6404    2.5162   50.7088 C.3     1  ZINC001162683355    0.1500
     20 C20        -6.6262    1.5535   51.3193 C.ar    1  ZINC001162683355   -0.1100
     21 C21        -6.4133    0.1912   51.2208 C.ar    1  ZINC001162683355   -0.1000
     22 C22        -7.3153   -0.6917   51.7846 C.ar    1  ZINC001162683355   -0.1200
     23 C23        -8.4347   -0.2126   52.4388 C.ar    1  ZINC001162683355   -0.1100
     24 C24        -8.6502    1.1497   52.5328 C.ar    1  ZINC001162683355   -0.1200
     25 C25        -7.7460    2.0326   51.9728 C.ar    1  ZINC001162683355   -0.1000
     26 C26         0.3756    1.3661   48.1853 C.3     1  ZINC001162683355    0.0300
     27 H27         2.5749    0.5590   46.9231 H       1  ZINC001162683355    0.0300
     28 H28         2.9927    1.0474   48.5830 H       1  ZINC001162683355    0.0700
     29 H29         3.0547   -0.6697   48.1184 H       1  ZINC001162683355    0.0700
     30 H30         1.0404   -1.9102   47.8122 H       1  ZINC001162683355    0.0900
     31 H31         0.4840   -0.7600   46.5718 H       1  ZINC001162683355    0.0500
     32 H32        -0.9506   -1.4378   49.1804 H       1  ZINC001162683355    0.0600
     33 H33        -1.4485   -1.9352   47.5450 H       1  ZINC001162683355    0.1000
     34 H34        -2.3656    2.3669   47.4355 H       1  ZINC001162683355    0.0700
     35 H35        -1.1961    3.3060   48.3940 H       1  ZINC001162683355    0.0800
     36 H36        -3.7885    2.3470   49.3010 H       1  ZINC001162683355    0.4000
     37 H37        -1.3833    4.7302   53.9869 H       1  ZINC001162683355    0.1300
     38 H38         0.1850    4.3481   52.1541 H       1  ZINC001162683355    0.1500
     39 H39        -4.3323    4.3843   54.7310 H       1  ZINC001162683355    0.1500
     40 H40        -6.3034    3.4145   53.3257 H       1  ZINC001162683355    0.1700
     41 H41        -4.9989    1.9831   50.0071 H       1  ZINC001162683355    0.0900
     42 H42        -6.1799    3.3033   50.1821 H       1  ZINC001162683355    0.0900
     43 H43        -5.5407   -0.1833   50.7063 H       1  ZINC001162683355    0.1200
     44 H44        -7.1467   -1.7560   51.7115 H       1  ZINC001162683355    0.1300
     45 H45        -9.1407   -0.9025   52.8770 H       1  ZINC001162683355    0.1300
     46 H46        -9.5248    1.5240   53.0440 H       1  ZINC001162683355    0.1300
     47 H47        -7.9144    3.0969   52.0462 H       1  ZINC001162683355    0.1200
     48 H48         0.3717    1.6317   47.1282 H       1  ZINC001162683355    0.0500
     49 H49         0.8492    2.1624   48.7596 H       1  ZINC001162683355    0.0900
@<TRIPOS>BOND
     1     1     2    1
     2     1    27    1
     3     1    28    1
     4     1    29    1
     5     2    26    1
     6     2     3    1
     7     3     4    1
     8     3    30    1
     9     3    31    1
    10     4     5    1
    11     4    32    1
    12     4    33    1
    13     5     6    1
    14     6     7    1
    15     6     8    1
    16     6    26    1
    17     8     9    1
    18     8    34    1
    19     8    35    1
    20     9    10    1
    21     9    36    1
    22    10    15   ar
    23    10    11   ar
    24    11    18    1
    25    11    12   ar
    26    12    13   ar
    27    12    16    1
    28    13    14   ar
    29    13    37    1
    30    14    15   ar
    31    14    38    1
    32    16    17    2
    33    16    39    1
    34    17    18    1
    35    17    40    1
    36    18    19    1
    37    19    20    1
    38    19    41    1
    39    19    42    1
    40    20    25   ar
    41    20    21   ar
    42    21    22   ar
    43    21    43    1
    44    22    23   ar
    45    22    44    1
    46    23    24   ar
    47    23    45    1
    48    24    25   ar
    49    24    46    1
    50    25    47    1
    51    26    48    1
    52    26    49    1
@<TRIPOS>SUBSTRUCTURE
     1 ZINC001162683355        1 TEMP              0 ****  ****    0 ROOT


##########                                Name:    ZINC001362451754
##########                DOCK_Rotatable_Bonds:                   6
##########                         Heavy_Atoms:                  22
##########                    Molecular_Weight:             339.846
##########                DOCK_Rotatable_Bonds:                   6
##########                       Formal_Charge:         -0.00999987
##########                     HBond_Acceptors:                   7
##########                        HBond_Donors:                   1
##########                         Heavy_Atoms:                  22
##########                          Grid_Score:          -30.879467
##########                     Grid_vdw_energy:          -28.190273
##########                      Grid_es_energy:           -2.689194
##########           Internal_energy_repulsive:           14.604401

@<TRIPOS>MOLECULE
ZINC001362451754
 40 42 1 0 0
SMALL
USER_CHARGES


@<TRIPOS>ATOM
      1 C1          0.7491    3.1102   50.4910 C.3     1  ZINC001362451754   -0.1700
      2 C2         -0.2567    2.9037   49.3566 C.3     1  ZINC001362451754    0.1400
      3 H3         -0.2197    3.7474   48.6675 H       1  ZINC001362451754    0.0800
      4 C4          0.0635    1.5958   48.6028 C.3     1  ZINC001362451754   -0.1000
      5 H5         -0.1434    1.7039   47.5380 H       1  ZINC001362451754    0.1000
      6 C6          1.5178    1.1801   48.8336 C.3     1  ZINC001362451754    0.0900
      7 O7          1.8026    0.0025   48.0759 O.3     1  ZINC001362451754   -0.5700
      8 C8         -0.9087    0.5746   49.2501 C.3     1  ZINC001362451754   -0.1200
      9 C9         -2.1530    1.4537   49.5184 C.3     1  ZINC001362451754    0.0900
     10 N10        -1.6125    2.7684   49.9090 N.am    1  ZINC001362451754   -0.6100
     11 C11        -2.2529    3.6912   50.6539 C.2     1  ZINC001362451754    0.6100
     12 O12        -1.7073    4.7469   50.9161 O.2     1  ZINC001362451754   -0.5200
     13 C13        -3.6065    3.4230   51.1484 C.2     1  ZINC001362451754   -0.2500
     14 C14        -3.9437    3.1980   52.4534 C.2     1  ZINC001362451754   -0.0500
     15 C15        -5.2865    2.9668   52.6359 C.2     1  ZINC001362451754   -0.1100
     16 C16        -6.0267    3.0112   51.5220 C.2     1  ZINC001362451754   -0.2500
     17 C17        -7.5172    2.7934   51.4778 C.3     1  ZINC001362451754    0.2100
     18 N18        -7.8269    1.4390   51.9426 N.pl3   1  ZINC001362451754   -0.3700
     19 C19        -8.8929    1.0797   52.6896 C.2     1  ZINC001362451754    0.0700
     20 C20        -8.8167   -0.2552   52.9015 C.2     1  ZINC001362451754   -0.1800
     21 Cl21       -9.9497   -1.2128   53.8031 Cl      1  ZINC001362451754   -0.0400
     22 C22        -7.6597   -0.7256   52.2704 C.2     1  ZINC001362451754    0.0700
     23 N23        -7.0661    0.2889   51.6956 N.2     1  ZINC001362451754   -0.2700
     24 S24        -5.0565    3.3389   50.1573 S.3     1  ZINC001362451754    0.2300
     25 H25         0.7004    2.2652   51.1779 H       1  ZINC001362451754    0.0600
     26 H26         1.7544    3.1838   50.0762 H       1  ZINC001362451754    0.0700
     27 H27         0.5089    4.0284   51.0269 H       1  ZINC001362451754    0.0700
     28 H28         2.1806    1.9853   48.5167 H       1  ZINC001362451754    0.0500
     29 H29         1.6737    0.9770   49.8932 H       1  ZINC001362451754    0.0500
     30 H30         2.1308   -0.7366   48.6062 H       1  ZINC001362451754    0.3800
     31 H31        -1.1420   -0.2352   48.5586 H       1  ZINC001362451754    0.0900
     32 H32        -0.5013    0.1841   50.1826 H       1  ZINC001362451754    0.0800
     33 H33        -2.7482    1.0323   50.3285 H       1  ZINC001362451754    0.0800
     34 H34        -2.7531    1.5440   48.6130 H       1  ZINC001362451754    0.0800
     35 H35        -3.2260    3.1973   53.2604 H       1  ZINC001362451754    0.1600
     36 H36        -5.7133    2.7678   53.6078 H       1  ZINC001362451754    0.1500
     37 H37        -8.0099    3.5205   52.1233 H       1  ZINC001362451754    0.1100
     38 H38        -7.8722    2.9164   50.4546 H       1  ZINC001362451754    0.1100
     39 H39        -9.6685    1.7386   53.0510 H       1  ZINC001362451754    0.1800
     40 H40        -7.3159   -1.7494   52.2599 H       1  ZINC001362451754    0.1900
@<TRIPOS>BOND
     1     1     2    1
     2     1    25    1
     3     1    26    1
     4     1    27    1
     5     2     3    1
     6     2    10    1
     7     2     4    1
     8     4     5    1
     9     4     6    1
    10     4     8    1
    11     6     7    1
    12     6    28    1
    13     6    29    1
    14     7    30    1
    15     8     9    1
    16     8    31    1
    17     8    32    1
    18     9    10    1
    19     9    33    1
    20     9    34    1
    21    10    11   am
    22    11    12    2
    23    11    13    1
    24    13    24    1
    25    13    14    2
    26    14    15    1
    27    14    35    1
    28    15    16    2
    29    15    36    1
    30    16    17    1
    31    16    24    1
    32    17    18    1
    33    17    37    1
    34    17    38    1
    35    18    23    1
    36    18    19    1
    37    19    20    2
    38    19    39    1
    39    20    21    1
    40    20    22    1
    41    22    23    2
    42    22    40    1
@<TRIPOS>SUBSTRUCTURE
     1 ZINC001362451754        1 TEMP              0 ****  ****    0 ROOT


##########                                Name:    ZINC000443394081
##########                DOCK_Rotatable_Bonds:                   8
##########                         Heavy_Atoms:                  27
##########                    Molecular_Weight:             389.878
##########                DOCK_Rotatable_Bonds:                   8
##########                       Formal_Charge:          -0.0300003
##########                     HBond_Acceptors:                   6
##########                        HBond_Donors:                   1
##########                         Heavy_Atoms:                  27
##########                          Grid_Score:          -30.812811
##########                     Grid_vdw_energy:          -30.949608
##########                      Grid_es_energy:            0.136796
##########           Internal_energy_repulsive:           31.617491

@<TRIPOS>MOLECULE
ZINC000443394081
 51 53 1 0 0
SMALL
USER_CHARGES


@<TRIPOS>ATOM
      1 C1         -0.7677    4.8303   52.2406 C.3     1  ZINC000443394081    0.0200
      2 O2         -0.9776    3.4813   51.8180 O.3     1  ZINC000443394081   -0.3000
      3 C3         -2.1612    3.2020   51.2094 C.ar    1  ZINC000443394081    0.1000
      4 C4         -3.3423    3.6760   51.7458 C.ar    1  ZINC000443394081   -0.1200
      5 C5         -4.5570    3.3875   51.1174 C.ar    1  ZINC000443394081   -0.1300
      6 C6         -5.8221    3.8920   51.6861 C.2     1  ZINC000443394081    0.5700
      7 O7         -6.0076    5.0892   51.7892 O.2     1  ZINC000443394081   -0.4900
      8 N8         -6.7718    3.0258   52.0910 N.am    1  ZINC000443394081   -0.6100
      9 C9         -6.6789    1.5560   52.0240 C.3     1  ZINC000443394081    0.0900
     10 C10        -7.6524    1.0468   53.1162 C.3     1  ZINC000443394081   -0.1300
     11 C11        -8.8086    2.0756   53.0071 C.3     1  ZINC000443394081   -0.1000
     12 H12        -9.4930    1.8029   52.2038 H       1  ZINC000443394081    0.0900
     13 C13        -9.5566    2.1923   54.3366 C.3     1  ZINC000443394081   -0.1500
     14 C14        -8.0694    3.3898   52.6788 C.3     1  ZINC000443394081    0.1400
     15 H15        -8.6468    3.9702   51.9591 H       1  ZINC000443394081    0.0800
     16 C16        -7.8627    4.2040   53.9575 C.3     1  ZINC000443394081    0.0600
     17 O17        -6.8670    3.5752   54.7669 O.3     1  ZINC000443394081   -0.5400
     18 C18        -4.5710    2.6211   49.9499 C.ar    1  ZINC000443394081   -0.1000
     19 C19        -3.3887    2.1506   49.4200 C.ar    1  ZINC000443394081   -0.1800
     20 C20        -2.1820    2.4418   50.0406 C.ar    1  ZINC000443394081    0.1300
     21 O21        -1.0198    1.9760   49.5148 O.3     1  ZINC000443394081   -0.3000
     22 C22        -0.7447    2.3092   48.1526 C.3     1  ZINC000443394081    0.1000
     23 C23        -0.9730    1.0993   47.2836 C.ar    1  ZINC000443394081   -0.0800
     24 C24        -0.8525   -0.1690   47.8191 C.ar    1  ZINC000443394081   -0.0800
     25 C25        -1.0619   -1.2790   47.0219 C.ar    1  ZINC000443394081   -0.1100
     26 C26        -1.3914   -1.1211   45.6889 C.ar    1  ZINC000443394081   -0.1000
     27 C27        -1.5122    0.1471   45.1521 C.ar    1  ZINC000443394081   -0.1100
     28 C28        -1.3089    1.2582   45.9507 C.ar    1  ZINC000443394081   -0.0300
     29 Cl29       -1.4605    2.8510   45.2773 Cl      1  ZINC000443394081   -0.0700
     30 H30         0.2126    4.9158   52.7093 H       1  ZINC000443394081    0.1000
     31 H31        -0.8165    5.4933   51.3768 H       1  ZINC000443394081    0.0600
     32 H32        -1.5392    5.1106   52.9578 H       1  ZINC000443394081    0.0600
     33 H33        -3.3274    4.2681   52.6488 H       1  ZINC000443394081    0.1500
     34 H34        -6.9912    1.2005   51.0420 H       1  ZINC000443394081    0.0700
     35 H35        -5.6617    1.2299   52.2405 H       1  ZINC000443394081    0.0800
     36 H36        -8.0025    0.0400   52.8889 H       1  ZINC000443394081    0.0900
     37 H37        -7.1879    1.0841   54.1016 H       1  ZINC000443394081    0.0800
     38 H38        -8.8612    2.4945   55.1195 H       1  ZINC000443394081    0.0600
     39 H39       -10.3467    2.9377   54.2448 H       1  ZINC000443394081    0.0600
     40 H40        -9.9952    1.2278   54.5926 H       1  ZINC000443394081    0.0600
     41 H41        -7.5371    5.2114   53.6981 H       1  ZINC000443394081    0.0600
     42 H42        -8.8006    4.2564   54.5104 H       1  ZINC000443394081    0.0400
     43 H43        -6.0067    3.4870   54.3344 H       1  ZINC000443394081    0.3700
     44 H44        -5.5083    2.3967   49.4625 H       1  ZINC000443394081    0.1400
     45 H45        -3.4011    1.5577   48.5174 H       1  ZINC000443394081    0.1400
     46 H46        -1.4065    3.1149   47.8348 H       1  ZINC000443394081    0.0800
     47 H47         0.2920    2.6326   48.0600 H       1  ZINC000443394081    0.0800
     48 H48        -0.5944   -0.2930   48.8604 H       1  ZINC000443394081    0.1400
     49 H49        -0.9676   -2.2700   47.4408 H       1  ZINC000443394081    0.1300
     50 H50        -1.5541   -1.9885   45.0665 H       1  ZINC000443394081    0.1300
     51 H51        -1.7698    0.2704   44.1104 H       1  ZINC000443394081    0.1400
@<TRIPOS>BOND
     1     1     2    1
     2     1    30    1
     3     1    31    1
     4     1    32    1
     5     2     3    1
     6     3    20   ar
     7     3     4   ar
     8     4     5   ar
     9     4    33    1
    10     5     6    1
    11     5    18   ar
    12     6     7    2
    13     6     8   am
    14     8    14    1
    15     8     9    1
    16     9    10    1
    17     9    34    1
    18     9    35    1
    19    10    11    1
    20    10    36    1
    21    10    37    1
    22    11    12    1
    23    11    13    1
    24    11    14    1
    25    13    38    1
    26    13    39    1
    27    13    40    1
    28    14    15    1
    29    14    16    1
    30    16    17    1
    31    16    41    1
    32    16    42    1
    33    17    43    1
    34    18    19   ar
    35    18    44    1
    36    19    20   ar
    37    19    45    1
    38    20    21    1
    39    21    22    1
    40    22    23    1
    41    22    46    1
    42    22    47    1
    43    23    28   ar
    44    23    24   ar
    45    24    25   ar
    46    24    48    1
    47    25    26   ar
    48    25    49    1
    49    26    27   ar
    50    26    50    1
    51    27    28   ar
    52    27    51    1
    53    28    29    1
@<TRIPOS>SUBSTRUCTURE
     1 ZINC000443394081        1 TEMP              0 ****  ****    0 ROOT


##########                                Name:    ZINC000432058199
##########                DOCK_Rotatable_Bonds:                   5
##########                         Heavy_Atoms:                  30
##########                    Molecular_Weight:             406.441
##########                DOCK_Rotatable_Bonds:                   5
##########                       Formal_Charge:        -4.02331e-07
##########                     HBond_Acceptors:                   8
##########                        HBond_Donors:                   1
##########                         Heavy_Atoms:                  30
##########                          Grid_Score:          -30.809559
##########                     Grid_vdw_energy:          -29.834858
##########                      Grid_es_energy:           -0.974701
##########           Internal_energy_repulsive:           16.144669

@<TRIPOS>MOLECULE
ZINC000432058199
 52 55 1 0 0
SMALL
USER_CHARGES


@<TRIPOS>ATOM
      1 C1         -9.0584   -0.8415   61.5709 C.3     1  ZINC000432058199    0.0300
      2 O2         -8.9213   -0.6705   60.1587 O.3     1  ZINC000432058199   -0.3100
      3 C3         -8.4547    0.5300   59.7250 C.ar    1  ZINC000432058199    0.1300
      4 C4         -8.1726    1.5360   60.6387 C.ar    1  ZINC000432058199   -0.1900
      5 C5         -7.6977    2.7586   60.2018 C.ar    1  ZINC000432058199   -0.0800
      6 C6         -7.5015    2.9856   58.8545 C.ar    1  ZINC000432058199   -0.1100
      7 C7         -7.7819    1.9806   57.9306 C.ar    1  ZINC000432058199    0.0100
      8 C8         -7.5713    2.2220   56.4813 C.2     1  ZINC000432058199    0.2100
      9 N9         -7.2328    3.3555   55.9244 N.2     1  ZINC000432058199   -0.3700
     10 O10        -7.1417    3.2188   54.7227 O.3     1  ZINC000432058199    0.1200
     11 C11        -7.4191    1.9559   54.3834 C.2     1  ZINC000432058199    0.1600
     12 C12        -7.4155    1.3821   52.9900 C.3     1  ZINC000432058199    0.2500
     13 H13        -6.4862    0.8371   52.8240 H       1  ZINC000432058199    0.1500
     14 C14        -7.5301    2.5172   51.9706 C.3     1  ZINC000432058199   -0.1700
     15 N15        -8.5511    0.4697   52.8347 N.am    1  ZINC000432058199   -0.5800
     16 C16        -8.4445   -0.8010   52.4297 C.2     1  ZINC000432058199    0.7000
     17 O17        -7.3893   -1.3335   52.1465 O.2     1  ZINC000432058199   -0.5100
     18 N18        -9.6356   -1.4233   52.3710 N.am    1  ZINC000432058199   -0.7200
     19 C19       -10.6472   -0.4376   52.7895 C.3     1  ZINC000432058199    0.1400
     20 H20       -11.3566   -0.2502   51.9835 H       1  ZINC000432058199    0.1400
     21 C21       -11.3660   -0.9083   54.0276 C.ar    1  ZINC000432058199   -0.1000
     22 C22       -12.7464   -0.8595   54.0860 C.ar    1  ZINC000432058199   -0.1000
     23 C23       -13.4058   -1.2912   55.2216 C.ar    1  ZINC000432058199   -0.0800
     24 C24       -14.9104   -1.2376   55.2855 C.3     1  ZINC000432058199   -0.1200
     25 C25       -12.6850   -1.7727   56.2984 C.ar    1  ZINC000432058199   -0.1100
     26 C26       -11.3047   -1.8219   56.2398 C.ar    1  ZINC000432058199   -0.0800
     27 C27       -10.5188   -2.3462   57.4140 C.3     1  ZINC000432058199   -0.1200
     28 C28       -10.6455   -1.3941   55.1026 C.ar    1  ZINC000432058199   -0.1000
     29 C29        -9.8317    0.8051   53.0875 C.2     1  ZINC000432058199    0.5300
     30 O30       -10.2459    1.8789   53.4685 O.2     1  ZINC000432058199   -0.4500
     31 N31        -7.6881    1.3095   55.4904 N.2     1  ZINC000432058199   -0.4500
     32 C32        -8.2552    0.7476   58.3714 C.ar    1  ZINC000432058199   -0.1200
     33 H33        -9.4390   -1.8411   61.7806 H       1  ZINC000432058199    0.1000
     34 H34        -8.0865   -0.7153   62.0481 H       1  ZINC000432058199    0.0600
     35 H35        -9.7540   -0.0985   61.9610 H       1  ZINC000432058199    0.0600
     36 H36        -8.3248    1.3632   61.6939 H       1  ZINC000432058199    0.1400
     37 H37        -7.4800    3.5384   60.9167 H       1  ZINC000432058199    0.1400
     38 H38        -7.1311    3.9421   58.5163 H       1  ZINC000432058199    0.1400
     39 H39        -8.4593    3.0622   52.1366 H       1  ZINC000432058199    0.0900
     40 H40        -6.6851    3.1961   52.0862 H       1  ZINC000432058199    0.0900
     41 H41        -7.5274    2.1020   50.9628 H       1  ZINC000432058199    0.0900
     42 H42        -9.7972   -2.3419   52.1046 H       1  ZINC000432058199    0.4500
     43 H43       -13.3095   -0.4838   53.2445 H       1  ZINC000432058199    0.1200
     44 H44       -15.3236   -2.1741   54.9107 H       1  ZINC000432058199    0.0700
     45 H45       -15.2251   -1.0892   56.3185 H       1  ZINC000432058199    0.0700
     46 H46       -15.2708   -0.4108   54.6736 H       1  ZINC000432058199    0.0700
     47 H47       -13.2001   -2.1099   57.1857 H       1  ZINC000432058199    0.1300
     48 H48       -10.3798   -3.4220   57.3068 H       1  ZINC000432058199    0.0700
     49 H49        -9.5461   -1.8557   57.4483 H       1  ZINC000432058199    0.0700
     50 H50       -11.0624   -2.1402   58.3361 H       1  ZINC000432058199    0.0700
     51 H51        -9.5672   -1.4325   55.0568 H       1  ZINC000432058199    0.1300
     52 H52        -8.4738   -0.0344   57.6593 H       1  ZINC000432058199    0.1400
@<TRIPOS>BOND
     1     1     2    1
     2     1    33    1
     3     1    34    1
     4     1    35    1
     5     2     3    1
     6     3    32   ar
     7     3     4   ar
     8     4     5   ar
     9     4    36    1
    10     5     6   ar
    11     5    37    1
    12     6     7   ar
    13     6    38    1
    14     7     8    1
    15     7    32   ar
    16     8    31    1
    17     8     9    2
    18     9    10    1
    19    10    11    1
    20    11    12    1
    21    11    31    2
    22    12    13    1
    23    12    14    1
    24    12    15    1
    25    14    39    1
    26    14    40    1
    27    14    41    1
    28    15    29   am
    29    15    16   am
    30    16    17    2
    31    16    18   am
    32    18    19    1
    33    18    42    1
    34    19    20    1
    35    19    21    1
    36    19    29    1
    37    21    28   ar
    38    21    22   ar
    39    22    23   ar
    40    22    43    1
    41    23    24    1
    42    23    25   ar
    43    24    44    1
    44    24    45    1
    45    24    46    1
    46    25    26   ar
    47    25    47    1
    48    26    27    1
    49    26    28   ar
    50    27    48    1
    51    27    49    1
    52    27    50    1
    53    28    51    1
    54    29    30    2
    55    32    52    1
@<TRIPOS>SUBSTRUCTURE
     1 ZINC000432058199        1 TEMP              0 ****  ****    0 ROOT


##########                                Name:    ZINC000417533280
##########                DOCK_Rotatable_Bonds:                   9
##########                         Heavy_Atoms:                  26
##########                    Molecular_Weight:             367.439
##########                DOCK_Rotatable_Bonds:                   9
##########                       Formal_Charge:         -0.00999999
##########                     HBond_Acceptors:                   7
##########                        HBond_Donors:                   2
##########                         Heavy_Atoms:                  26
##########                          Grid_Score:          -30.794088
##########                     Grid_vdw_energy:          -30.041031
##########                      Grid_es_energy:           -0.753058
##########           Internal_energy_repulsive:           14.646577

@<TRIPOS>MOLECULE
ZINC000417533280
 53 54 1 0 0
SMALL
USER_CHARGES


@<TRIPOS>ATOM
      1 C1         -0.2463   -0.6636   48.4882 C.3     1  ZINC000417533280   -0.1600
      2 C2         -0.9341    0.4404   47.6828 C.3     1  ZINC000417533280   -0.1200
      3 C3         -1.1574    1.6611   48.5777 C.3     1  ZINC000417533280   -0.1200
      4 C4         -2.3623    1.4129   49.4875 C.3     1  ZINC000417533280   -0.1300
      5 C5         -2.7491    2.7166   50.1885 C.3     1  ZINC000417533280    0.1200
      6 N6         -3.9797    2.5116   50.9565 N.am    1  ZINC000417533280   -0.7300
      7 C7         -5.1673    2.4498   50.3225 C.2     1  ZINC000417533280    0.5200
      8 O8         -5.2172    2.5625   49.1160 O.2     1  ZINC000417533280   -0.5400
      9 C9         -6.4335    2.2407   51.1128 C.3     1  ZINC000417533280   -0.1100
     10 C10        -6.2294    1.0973   52.1094 C.3     1  ZINC000417533280   -0.1300
     11 C11        -7.5289    0.8648   52.8866 C.3     1  ZINC000417533280    0.1300
     12 N12        -7.9462    2.1328   53.5002 N.am    1  ZINC000417533280   -0.6200
     13 C13        -8.1967    2.2061   54.8225 C.2     1  ZINC000417533280    0.7100
     14 O14        -8.5415    3.2614   55.3183 O.2     1  ZINC000417533280   -0.5600
     15 N15        -8.0650    1.1097   55.5951 N.am    1  ZINC000417533280   -0.6800
     16 C16        -8.3252    1.1859   56.9692 C.ar    1  ZINC000417533280    0.1900
     17 C17        -7.3951    1.7653   57.8214 C.ar    1  ZINC000417533280   -0.1100
     18 C18        -7.6528    1.8406   59.1768 C.ar    1  ZINC000417533280   -0.1100
     19 C19        -8.8375    1.3386   59.6863 C.ar    1  ZINC000417533280    0.0500
     20 F20        -9.0875    1.4136   61.0118 F       1  ZINC000417533280   -0.1300
     21 C21        -9.7688    0.7591   58.8373 C.ar    1  ZINC000417533280    0.0900
     22 F22       -10.9249    0.2696   59.3361 F       1  ZINC000417533280   -0.1200
     23 C23        -9.5162    0.6871   57.4796 C.ar    1  ZINC000417533280   -0.1300
     24 C24       -10.5277    0.0581   56.5565 C.3     1  ZINC000417533280   -0.1200
     25 C25        -8.0850    3.3195   52.6451 C.3     1  ZINC000417533280    0.1100
     26 C26        -6.7793    3.5245   51.8706 C.3     1  ZINC000417533280   -0.1200
     27 H27         0.7142   -0.3013   48.8549 H       1  ZINC000417533280    0.0500
     28 H28        -0.8758   -0.9429   49.3332 H       1  ZINC000417533280    0.0500
     29 H29        -0.0873   -1.5332   47.8506 H       1  ZINC000417533280    0.0500
     30 H30        -0.3046    0.7197   46.8378 H       1  ZINC000417533280    0.0600
     31 H31        -1.8946    0.0781   47.3161 H       1  ZINC000417533280    0.0600
     32 H32        -0.2704    1.8313   49.1879 H       1  ZINC000417533280    0.0700
     33 H33        -1.3452    2.5372   47.9571 H       1  ZINC000417533280    0.0700
     34 H34        -3.2021    1.0588   48.8896 H       1  ZINC000417533280    0.0700
     35 H35        -2.1052    0.6613   50.2339 H       1  ZINC000417533280    0.0700
     36 H36        -1.9469    3.0191   50.8616 H       1  ZINC000417533280    0.0700
     37 H37        -2.9114    3.4955   49.4434 H       1  ZINC000417533280    0.0700
     38 H38        -3.9397    2.4202   51.9214 H       1  ZINC000417533280    0.4000
     39 H39        -7.2480    1.9893   50.4337 H       1  ZINC000417533280    0.1000
     40 H40        -5.9602    0.1889   51.5706 H       1  ZINC000417533280    0.0800
     41 H41        -5.4315    1.3586   52.8044 H       1  ZINC000417533280    0.0800
     42 H42        -8.3047    0.5157   52.2052 H       1  ZINC000417533280    0.0700
     43 H43        -7.3610    0.1201   53.6646 H       1  ZINC000417533280    0.1000
     44 H44        -7.7900    0.2679   55.1995 H       1  ZINC000417533280    0.4100
     45 H45        -6.4700    2.1570   57.4250 H       1  ZINC000417533280    0.1700
     46 H46        -6.9286    2.2911   59.8394 H       1  ZINC000417533280    0.1500
     47 H47       -11.2202    0.8215   56.2019 H       1  ZINC000417533280    0.0800
     48 H48       -10.0141   -0.3899   55.7058 H       1  ZINC000417533280    0.0700
     49 H49       -11.0804   -0.7124   57.0940 H       1  ZINC000417533280    0.0800
     50 H50        -8.9063    3.1707   51.9441 H       1  ZINC000417533280    0.0800
     51 H51        -8.2841    4.1945   53.2639 H       1  ZINC000417533280    0.0800
     52 H52        -5.9762    3.7630   52.5680 H       1  ZINC000417533280    0.0800
     53 H53        -6.9015    4.3436   51.1619 H       1  ZINC000417533280    0.0900
@<TRIPOS>BOND
     1     1     2    1
     2     1    27    1
     3     1    28    1
     4     1    29    1
     5     2     3    1
     6     2    30    1
     7     2    31    1
     8     3     4    1
     9     3    32    1
    10     3    33    1
    11     4     5    1
    12     4    34    1
    13     4    35    1
    14     5     6    1
    15     5    36    1
    16     5    37    1
    17     6     7   am
    18     6    38    1
    19     7     8    2
    20     7     9    1
    21     9    26    1
    22     9    10    1
    23     9    39    1
    24    10    11    1
    25    10    40    1
    26    10    41    1
    27    11    12    1
    28    11    42    1
    29    11    43    1
    30    12    13   am
    31    12    25    1
    32    13    14    2
    33    13    15   am
    34    15    16    1
    35    15    44    1
    36    16    23   ar
    37    16    17   ar
    38    17    18   ar
    39    17    45    1
    40    18    19   ar
    41    18    46    1
    42    19    20    1
    43    19    21   ar
    44    21    22    1
    45    21    23   ar
    46    23    24    1
    47    24    47    1
    48    24    48    1
    49    24    49    1
    50    25    26    1
    51    25    50    1
    52    25    51    1
    53    26    52    1
    54    26    53    1
@<TRIPOS>SUBSTRUCTURE
     1 ZINC000417533280        1 TEMP              0 ****  ****    0 ROOT


##########                                Name:    ZINC000055987960
##########                DOCK_Rotatable_Bonds:                   6
##########                         Heavy_Atoms:                  28
##########                    Molecular_Weight:             404.868
##########                DOCK_Rotatable_Bonds:                   6
##########                       Formal_Charge:          0.00999941
##########                     HBond_Acceptors:                   7
##########                        HBond_Donors:                   1
##########                         Heavy_Atoms:                  28
##########                          Grid_Score:          -30.789045
##########                     Grid_vdw_energy:          -29.509508
##########                      Grid_es_energy:           -1.279537
##########           Internal_energy_repulsive:           16.141186

@<TRIPOS>MOLECULE
ZINC000055987960
 50 52 1 0 0
SMALL
USER_CHARGES


@<TRIPOS>ATOM
      1 C1         -8.4494    0.2197   52.8280 C.3     1  ZINC000055987960   -0.1800
      2 C2         -8.1292    0.8222   54.1974 C.3     1  ZINC000055987960    0.0700
      3 H3         -7.4805    0.1435   54.7511 H       1  ZINC000055987960    0.1200
      4 C4         -7.4213    2.1691   54.0113 C.3     1  ZINC000055987960    0.0800
      5 N5         -8.3809    3.1213   53.4300 N.am    1  ZINC000055987960   -0.6100
      6 C6         -8.0645    3.8462   52.3387 C.2     1  ZINC000055987960    0.5700
      7 O7         -8.8712    4.6278   51.8732 O.2     1  ZINC000055987960   -0.5300
      8 C8         -6.7388    3.6911   51.7086 C.ar    1  ZINC000055987960   -0.1500
      9 C9         -6.6345    3.1699   50.4162 C.ar    1  ZINC000055987960   -0.0700
     10 C10        -5.3965    3.0269   49.8311 C.ar    1  ZINC000055987960   -0.1500
     11 C11        -4.2500    3.4007   50.5252 C.ar    1  ZINC000055987960    0.1700
     12 N12        -2.9978    3.2550   49.9295 N.am    1  ZINC000055987960   -0.6700
     13 C13        -2.6194    2.0575   49.4405 C.2     1  ZINC000055987960    0.5200
     14 O14        -3.3680    1.1065   49.5186 O.2     1  ZINC000055987960   -0.5000
     15 C15        -1.2659    1.8999   48.7967 C.3     1  ZINC000055987960   -0.1100
     16 C16        -1.3513    0.8795   47.6910 C.ar    1  ZINC000055987960   -0.1000
     17 C17        -1.7652    1.2615   46.4266 C.ar    1  ZINC000055987960    0.1300
     18 F18        -2.0929    2.5494   46.1831 F       1  ZINC000055987960   -0.1300
     19 C19        -1.8427    0.3229   45.4113 C.ar    1  ZINC000055987960   -0.1500
     20 C20        -1.5070   -0.9941   45.6606 C.ar    1  ZINC000055987960   -0.0700
     21 C21        -1.0936   -1.3757   46.9235 C.ar    1  ZINC000055987960   -0.1200
     22 C22        -1.0105   -0.4384   47.9376 C.ar    1  ZINC000055987960    0.0000
     23 Cl23       -0.4907   -0.9185   49.5229 Cl      1  ZINC000055987960   -0.0500
     24 C24        -4.3504    3.9200   51.8121 C.ar    1  ZINC000055987960   -0.1200
     25 C25        -5.5856    4.0705   52.4009 C.ar    1  ZINC000055987960   -0.0500
     26 C26        -9.6963    3.2585   54.0752 C.3     1  ZINC000055987960    0.0600
     27 C27       -10.2934    1.8585   54.2582 C.3     1  ZINC000055987960    0.0700
     28 H28       -10.5292    1.4330   53.2828 H       1  ZINC000055987960    0.0700
     29 C29       -11.5695    1.9527   55.0969 C.3     1  ZINC000055987960   -0.1500
     30 O30        -9.3426    1.0237   54.9259 O.3     1  ZINC000055987960   -0.3700
     31 H31        -9.0980    0.8989   52.2748 H       1  ZINC000055987960    0.0600
     32 H32        -7.5239    0.0680   52.2724 H       1  ZINC000055987960    0.0700
     33 H33        -8.9543   -0.7371   52.9610 H       1  ZINC000055987960    0.0700
     34 H34        -7.0762    2.5389   54.9769 H       1  ZINC000055987960    0.0800
     35 H35        -6.5718    2.0476   53.3393 H       1  ZINC000055987960    0.1000
     36 H36        -7.5240    2.8792   49.8770 H       1  ZINC000055987960    0.1400
     37 H37        -5.3151    2.6238   48.8325 H       1  ZINC000055987960    0.1300
     38 H38        -2.3989    4.0155   49.8671 H       1  ZINC000055987960    0.4200
     39 H39        -0.9463    2.8569   48.3841 H       1  ZINC000055987960    0.1200
     40 H40        -0.5449    1.5671   49.5433 H       1  ZINC000055987960    0.1200
     41 H41        -2.1659    0.6203   44.4246 H       1  ZINC000055987960    0.1500
     42 H42        -1.5679   -1.7258   44.8687 H       1  ZINC000055987960    0.1500
     43 H43        -0.8318   -2.4053   47.1175 H       1  ZINC000055987960    0.1400
     44 H44        -3.4585    4.2088   52.3482 H       1  ZINC000055987960    0.1500
     45 H45        -5.6630    4.4736   53.3998 H       1  ZINC000055987960    0.1300
     46 H46        -9.5802    3.7380   55.0472 H       1  ZINC000055987960    0.0800
     47 H47       -10.3533    3.8583   53.4455 H       1  ZINC000055987960    0.1100
     48 H48       -12.2917    2.5917   54.5888 H       1  ZINC000055987960    0.0700
     49 H49       -11.9934    0.9569   55.2265 H       1  ZINC000055987960    0.0700
     50 H50       -11.3325    2.3766   56.0727 H       1  ZINC000055987960    0.0700
@<TRIPOS>BOND
     1     1     2    1
     2     1    31    1
     3     1    32    1
     4     1    33    1
     5     2     3    1
     6     2    30    1
     7     2     4    1
     8     4     5    1
     9     4    34    1
    10     4    35    1
    11     5     6   am
    12     5    26    1
    13     6     7    2
    14     6     8    1
    15     8    25   ar
    16     8     9   ar
    17     9    10   ar
    18     9    36    1
    19    10    11   ar
    20    10    37    1
    21    11    12    1
    22    11    24   ar
    23    12    13   am
    24    12    38    1
    25    13    14    2
    26    13    15    1
    27    15    16    1
    28    15    39    1
    29    15    40    1
    30    16    22   ar
    31    16    17   ar
    32    17    18    1
    33    17    19   ar
    34    19    20   ar
    35    19    41    1
    36    20    21   ar
    37    20    42    1
    38    21    22   ar
    39    21    43    1
    40    22    23    1
    41    24    25   ar
    42    24    44    1
    43    25    45    1
    44    26    27    1
    45    26    46    1
    46    26    47    1
    47    27    28    1
    48    27    29    1
    49    27    30    1
    50    29    48    1
    51    29    49    1
    52    29    50    1
@<TRIPOS>SUBSTRUCTURE
     1 ZINC000055987960        1 TEMP              0 ****  ****    0 ROOT


##########                                Name:    ZINC000822449555
##########                DOCK_Rotatable_Bonds:                   5
##########                         Heavy_Atoms:                  27
##########                    Molecular_Weight:             366.383
##########                DOCK_Rotatable_Bonds:                   5
##########                       Formal_Charge:          -0.0100009
##########                     HBond_Acceptors:                  10
##########                        HBond_Donors:                   2
##########                         Heavy_Atoms:                  27
##########                          Grid_Score:          -30.751575
##########                     Grid_vdw_energy:          -29.349438
##########                      Grid_es_energy:           -1.402138
##########           Internal_energy_repulsive:            9.261111

@<TRIPOS>MOLECULE
ZINC000822449555
 45 48 1 0 0
SMALL
USER_CHARGES


@<TRIPOS>ATOM
      1 C1         -0.1873   -0.0937   48.7614 C.3     1  ZINC000822449555   -0.1100
      2 C2         -1.4555    0.7147   48.6637 C.ar    1  ZINC000822449555    0.1400
      3 N3         -2.1642    0.9499   49.7513 N.ar    1  ZINC000822449555   -0.5000
      4 C4         -3.2842    1.6547   49.7127 C.ar    1  ZINC000822449555    0.3000
      5 N5         -3.9983    1.8770   50.8870 N.3     1  ZINC000822449555   -0.4700
      6 C6         -5.3981    1.4521   50.7408 C.3     1  ZINC000822449555    0.0200
      7 C7         -6.1298    1.6581   52.0697 C.3     1  ZINC000822449555    0.0600
      8 O8         -6.0182    3.0288   52.4621 O.3     1  ZINC000822449555   -0.3800
      9 C9         -4.6683    3.4761   52.6145 C.3     1  ZINC000822449555    0.0600
     10 C10        -3.9218    3.2884   51.2910 C.3     1  ZINC000822449555    0.0300
     11 C11        -3.7552    2.1760   48.5125 C.ar    1  ZINC000822449555   -0.1700
     12 C12        -3.0384    1.9495   47.3518 C.ar    1  ZINC000822449555   -0.0500
     13 C13        -1.8612    1.2073   47.4325 C.ar    1  ZINC000822449555    0.0600
     14 N14        -1.1029    0.9531   46.2821 N.am    1  ZINC000822449555   -0.6600
     15 C15        -0.0469    1.7359   45.9845 C.2     1  ZINC000822449555    0.5700
     16 O16         0.2475    2.6630   46.7141 O.2     1  ZINC000822449555   -0.5100
     17 C17         0.7524    1.4679   44.7718 C.ar    1  ZINC000822449555   -0.1800
     18 C18         1.8710    2.2563   44.4695 C.ar    1  ZINC000822449555   -0.0100
     19 C19         2.5874    1.9677   43.3246 C.ar    1  ZINC000822449555   -0.1300
     20 C20         2.1777    0.9101   42.5138 C.ar    1  ZINC000822449555    0.2300
     21 C21         2.9416    0.5934   41.2824 C.2     1  ZINC000822449555    0.2100
     22 N22         2.6771   -0.3648   40.4159 N.2     1  ZINC000822449555   -0.2500
     23 N23         3.5688   -0.3133   39.4869 N.pl3   1  ZINC000822449555   -0.2200
     24 N24         4.3895    0.6464   39.7368 N.2     1  ZINC000822449555   -0.0400
     25 N25         4.0322    1.2295   40.8305 N.2     1  ZINC000822449555   -0.2500
     26 N26         1.1132    0.1824   42.8296 N.ar    1  ZINC000822449555   -0.4500
     27 C27         0.4076    0.4215   43.9133 C.ar    1  ZINC000822449555    0.1400
     28 H28         0.6541    0.5723   48.9529 H       1  ZINC000822449555    0.0800
     29 H29        -0.2757   -0.8112   49.5771 H       1  ZINC000822449555    0.0800
     30 H30        -0.0230   -0.6266   47.8248 H       1  ZINC000822449555    0.0700
     31 H31        -5.8796    2.0464   49.9642 H       1  ZINC000822449555    0.0600
     32 H32        -5.4316    0.3977   50.4665 H       1  ZINC000822449555    0.1000
     33 H33        -7.1815    1.3981   51.9502 H       1  ZINC000822449555    0.1100
     34 H34        -5.6818    1.0230   52.8341 H       1  ZINC000822449555    0.0600
     35 H35        -4.6632    4.5309   52.8890 H       1  ZINC000822449555    0.1000
     36 H36        -4.1779    2.8939   53.3946 H       1  ZINC000822449555    0.0600
     37 H37        -2.8778    3.5746   51.4183 H       1  ZINC000822449555    0.1000
     38 H38        -4.3798    3.9121   50.5233 H       1  ZINC000822449555    0.0600
     39 H39        -4.6696    2.7502   48.4872 H       1  ZINC000822449555    0.1400
     40 H40        -3.3806    2.3418   46.4055 H       1  ZINC000822449555    0.1500
     41 H41        -1.3378    0.2136   45.7000 H       1  ZINC000822449555    0.4100
     42 H42         2.1652    3.0700   45.1158 H       1  ZINC000822449555    0.1600
     43 H43         3.4547    2.5546   43.0603 H       1  ZINC000822449555    0.1600
     44 H44         3.6144   -0.9049   38.7196 H       1  ZINC000822449555    0.4800
     45 H45        -0.4522   -0.1924   44.1373 H       1  ZINC000822449555    0.1700
@<TRIPOS>BOND
     1     1     2    1
     2     1    28    1
     3     1    29    1
     4     1    30    1
     5     2    13   ar
     6     2     3   ar
     7     3     4   ar
     8     4     5    1
     9     4    11   ar
    10     5    10    1
    11     5     6    1
    12     6     7    1
    13     6    31    1
    14     6    32    1
    15     7     8    1
    16     7    33    1
    17     7    34    1
    18     8     9    1
    19     9    10    1
    20     9    35    1
    21     9    36    1
    22    10    37    1
    23    10    38    1
    24    11    12   ar
    25    11    39    1
    26    12    13   ar
    27    12    40    1
    28    13    14    1
    29    14    15   am
    30    14    41    1
    31    15    16    2
    32    15    17    1
    33    17    27   ar
    34    17    18   ar
    35    18    19   ar
    36    18    42    1
    37    19    20   ar
    38    19    43    1
    39    20    21    1
    40    20    26   ar
    41    21    25    1
    42    21    22    2
    43    22    23    1
    44    23    24    1
    45    23    44    1
    46    24    25    2
    47    26    27   ar
    48    27    45    1
@<TRIPOS>SUBSTRUCTURE
     1 ZINC000822449555        1 TEMP              0 ****  ****    0 ROOT


##########                                Name:    ZINC000826052721
##########                DOCK_Rotatable_Bonds:                   3
##########                         Heavy_Atoms:                  29
##########                    Molecular_Weight:             393.399
##########                DOCK_Rotatable_Bonds:                   3
##########                       Formal_Charge:        -4.47035e-07
##########                     HBond_Acceptors:                   9
##########                        HBond_Donors:                   2
##########                         Heavy_Atoms:                  29
##########                          Grid_Score:          -30.748341
##########                     Grid_vdw_energy:          -25.410912
##########                      Grid_es_energy:           -5.337429
##########           Internal_energy_repulsive:           14.498649

@<TRIPOS>MOLECULE
ZINC000826052721
 46 50 1 0 0
SMALL
USER_CHARGES


@<TRIPOS>ATOM
      1 C1          2.1913    0.8948   51.3250 C.3     1  ZINC000826052721   -0.0400
      2 N2          1.1158    0.9718   50.3273 N.4     1  ZINC000826052721   -0.3800
      3 H3          0.4408    0.2423   50.5015 H       1  ZINC000826052721    0.4300
      4 C4          1.6798    0.8077   48.9845 C.3     1  ZINC000826052721    0.0500
      5 C5          0.6226    1.0297   47.9354 C.ar    1  ZINC000826052721   -0.1300
      6 C6          0.8480    0.5483   46.6547 C.ar    1  ZINC000826052721   -0.1000
      7 C7         -0.0938    0.7365   45.6628 C.ar    1  ZINC000826052721   -0.1000
      8 C8         -1.2680    1.4083   45.9463 C.ar    1  ZINC000826052721   -0.0800
      9 C9         -1.4950    1.8872   47.2216 C.ar    1  ZINC000826052721   -0.0800
     10 C10        -0.5506    1.6976   48.2179 C.ar    1  ZINC000826052721   -0.1200
     11 C11        -0.8375    2.2325   49.5976 C.3     1  ZINC000826052721    0.1100
     12 H12        -1.5540    1.5805   50.0973 H       1  ZINC000826052721    0.1100
     13 N13        -1.4004    3.5850   49.4898 N.3     1  ZINC000826052721   -0.6200
     14 C14        -1.8916    4.0158   50.7083 C.ar    1  ZINC000826052721    0.1600
     15 C15        -1.1645    4.9051   51.5070 C.ar    1  ZINC000826052721   -0.0400
     16 C16         0.1520    5.4040   51.0595 C.2     1  ZINC000826052721    0.0700
     17 N17         1.1094    5.9318   51.8260 N.2     1  ZINC000826052721   -0.3800
     18 N18         2.0974    6.2369   51.0559 N.2     1  ZINC000826052721   -0.1600
     19 N19         1.7997    5.9330   49.8415 N.2     1  ZINC000826052721   -0.1700
     20 N20         0.6168    5.4214   49.8079 N.pl3   1  ZINC000826052721   -0.3400
     21 C21        -1.6997    5.3217   52.7344 C.ar    1  ZINC000826052721    0.1800
     22 N22        -2.8614    4.8922   53.1587 N.ar    1  ZINC000826052721   -0.4700
     23 C23        -3.6046    4.0364   52.4445 C.ar    1  ZINC000826052721    0.0900
     24 C24        -4.8488    3.5894   52.9253 C.ar    1  ZINC000826052721    0.1700
     25 F25        -5.3094    4.0231   54.1189 F       1  ZINC000826052721   -0.1100
     26 C26        -5.5889    2.7178   52.1822 C.ar    1  ZINC000826052721   -0.1900
     27 C27        -5.1315    2.2585   50.9484 C.ar    1  ZINC000826052721    0.1300
     28 F28        -5.8870    1.3949   50.2353 F       1  ZINC000826052721   -0.1300
     29 C29        -3.9286    2.6711   50.4524 C.ar    1  ZINC000826052721   -0.1500
     30 C30        -3.1436    3.5673   51.1913 C.ar    1  ZINC000826052721   -0.0600
     31 C31         0.4565    2.2837   50.4110 C.3     1  ZINC000826052721    0.0000
     32 H32         2.9178    1.6856   51.1378 H       1  ZINC000826052721    0.1200
     33 H33         1.7704    1.0170   52.3231 H       1  ZINC000826052721    0.1300
     34 H34         2.6835   -0.0751   51.2546 H       1  ZINC000826052721    0.1200
     35 H35         2.0801   -0.2012   48.8835 H       1  ZINC000826052721    0.1400
     36 H36         2.4846    1.5288   48.8421 H       1  ZINC000826052721    0.1400
     37 H37         1.7650    0.0230   46.4321 H       1  ZINC000826052721    0.1300
     38 H38         0.0866    0.3593   44.6671 H       1  ZINC000826052721    0.1300
     39 H39        -2.0065    1.5579   45.1724 H       1  ZINC000826052721    0.1300
     40 H40        -2.4127    2.4113   47.4436 H       1  ZINC000826052721    0.1400
     41 H41        -2.1144    3.6239   48.7780 H       1  ZINC000826052721    0.4100
     42 H42        -1.1375    6.0112   53.3468 H       1  ZINC000826052721    0.1800
     43 H43        -6.5437    2.3779   52.5555 H       1  ZINC000826052721    0.1600
     44 H44        -3.5830    2.3086   49.4954 H       1  ZINC000826052721    0.1400
     45 H45         1.1145    3.0514   50.0038 H       1  ZINC000826052721    0.1400
     46 H46         0.2257    2.5103   51.4519 H       1  ZINC000826052721    0.1400
@<TRIPOS>BOND
     1     1     2    1
     2     1    32    1
     3     1    33    1
     4     1    34    1
     5     2     3    1
     6     2    31    1
     7     2     4    1
     8     4     5    1
     9     4    35    1
    10     4    36    1
    11     5    10   ar
    12     5     6   ar
    13     6     7   ar
    14     6    37    1
    15     7     8   ar
    16     7    38    1
    17     8     9   ar
    18     8    39    1
    19     9    10   ar
    20     9    40    1
    21    10    11    1
    22    11    12    1
    23    11    13    1
    24    11    31    1
    25    13    14    1
    26    13    41    1
    27    14    30   ar
    28    14    15   ar
    29    15    16    1
    30    15    21   ar
    31    16    20    1
    32    16    17    2
    33    17    18    1
    34    18    19    2
    35    19    20    1
    36    21    22   ar
    37    21    42    1
    38    22    23   ar
    39    23    30   ar
    40    23    24   ar
    41    24    25    1
    42    24    26   ar
    43    26    27   ar
    44    26    43    1
    45    27    28    1
    46    27    29   ar
    47    29    30   ar
    48    29    44    1
    49    31    45    1
    50    31    46    1
@<TRIPOS>SUBSTRUCTURE
     1 ZINC000826052721        1 TEMP              0 ****  ****    0 ROOT


##########                                Name:    ZINC000438893617
##########                DOCK_Rotatable_Bonds:                   5
##########                         Heavy_Atoms:                  29
##########                    Molecular_Weight:             412.596
##########                DOCK_Rotatable_Bonds:                   5
##########                       Formal_Charge:           0.0600001
##########                     HBond_Acceptors:                   5
##########                        HBond_Donors:                   0
##########                         Heavy_Atoms:                  29
##########                          Grid_Score:          -30.744648
##########                     Grid_vdw_energy:          -30.279181
##########                      Grid_es_energy:           -0.465468
##########           Internal_energy_repulsive:          167.589691

@<TRIPOS>MOLECULE
ZINC000438893617
 61 66 1 0 0
SMALL
USER_CHARGES


@<TRIPOS>ATOM
      1 C1         -8.9623    2.7450   54.4254 C.3     1  ZINC000438893617   -0.1000
      2 C2         -8.6425    1.4799   53.6717 C.2     1  ZINC000438893617   -0.0900
      3 C3         -7.7892    1.4516   52.6468 C.2     1  ZINC000438893617   -0.1600
      4 C4         -7.0406    2.6427   52.1064 C.3     1  ZINC000438893617   -0.0400
      5 H5         -7.2681    3.5964   52.5825 H       1  ZINC000438893617    0.1400
      6 C6         -6.7230    2.6580   50.6099 C.3     1  ZINC000438893617   -0.1400
      7 C7         -5.6052    2.4169   51.6274 C.3     1  ZINC000438893617   -0.1800
      8 H8         -5.2024    1.4070   51.7026 H       1  ZINC000438893617    0.1300
      9 C9         -4.6139    3.5302   51.8489 C.2     1  ZINC000438893617    0.5500
     10 O10        -4.7513    4.2868   52.7868 O.2     1  ZINC000438893617   -0.5300
     11 N11        -3.5746    3.6849   51.0048 N.am    1  ZINC000438893617   -0.6100
     12 C12        -2.5957    4.7610   51.2130 C.3     1  ZINC000438893617    0.0900
     13 C13        -1.1947    4.1414   51.2877 C.3     1  ZINC000438893617    0.1000
     14 N14        -1.0198    3.2365   50.1430 N.am    1  ZINC000438893617   -0.6100
     15 C15         0.0201    3.3906   49.2994 C.2     1  ZINC000438893617    0.5300
     16 O16         0.8217    4.2822   49.4817 O.2     1  ZINC000438893617   -0.5300
     17 C17         0.1865    2.4549   48.1299 C.3     1  ZINC000438893617   -0.0700
     18 C18        -1.0161    2.5897   47.1937 C.3     1  ZINC000438893617   -0.1100
     19 C19        -0.8471    1.6398   46.0063 C.3     1  ZINC000438893617   -0.0800
     20 C20        -0.7552    0.1996   46.5144 C.3     1  ZINC000438893617   -0.1100
     21 C21         0.4474    0.0648   47.4505 C.3     1  ZINC000438893617   -0.0800
     22 C22         1.7272    0.4203   46.6912 C.3     1  ZINC000438893617   -0.1100
     23 C23         1.6353    1.8605   46.1830 C.3     1  ZINC000438893617   -0.0900
     24 C24         0.4326    1.9953   45.2468 C.3     1  ZINC000438893617   -0.1100
     25 C25         1.4662    2.8105   47.3704 C.3     1  ZINC000438893617   -0.0900
     26 C26         0.2784    1.0146   48.6380 C.3     1  ZINC000438893617   -0.1200
     27 C27        -1.9987    2.1603   49.9347 C.3     1  ZINC000438893617    0.0700
     28 C28        -3.3966    2.7766   49.8634 C.3     1  ZINC000438893617    0.1000
     29 S29        -7.6712   -0.1885   52.0227 S.3     1  ZINC000438893617    0.1000
     30 C30        -8.8211   -0.7605   53.2244 C.2     1  ZINC000438893617   -0.2100
     31 C31        -9.2075    0.2580   53.9941 C.2     1  ZINC000438893617   -0.1300
     32 H32        -8.2631    2.8612   55.2536 H       1  ZINC000438893617    0.0700
     33 H33        -8.8758    3.5996   53.7544 H       1  ZINC000438893617    0.0700
     34 H34        -9.9792    2.6894   54.8138 H       1  ZINC000438893617    0.0700
     35 H35        -7.0556    1.8067   50.0161 H       1  ZINC000438893617    0.1100
     36 H36        -6.7413    3.6221   50.1014 H       1  ZINC000438893617    0.1100
     37 H37        -2.6412    5.4632   50.3806 H       1  ZINC000438893617    0.0800
     38 H38        -2.8159    5.2807   52.1455 H       1  ZINC000438893617    0.1000
     39 H39        -0.4433    4.9301   51.2487 H       1  ZINC000438893617    0.1100
     40 H40        -1.0918    3.5804   52.2165 H       1  ZINC000438893617    0.0700
     41 H41        -1.9279    2.3364   47.7347 H       1  ZINC000438893617    0.0800
     42 H42        -1.0816    3.6158   46.8317 H       1  ZINC000438893617    0.0700
     43 H43        -1.7040    1.7357   45.3394 H       1  ZINC000438893617    0.0800
     44 H44        -1.6669   -0.0538   47.0555 H       1  ZINC000438893617    0.0600
     45 H45        -0.6349   -0.4772   45.6685 H       1  ZINC000438893617    0.0700
     46 H46         0.5129   -0.9613   47.8125 H       1  ZINC000438893617    0.0800
     47 H47         2.5840    0.3243   47.3580 H       1  ZINC000438893617    0.0600
     48 H48         1.8476   -0.2565   45.8453 H       1  ZINC000438893617    0.0700
     49 H49         2.5470    2.1139   45.6420 H       1  ZINC000438893617    0.0700
     50 H50         0.5530    1.3186   44.4009 H       1  ZINC000438893617    0.0700
     51 H51         0.3671    3.0213   44.8848 H       1  ZINC000438893617    0.0600
     52 H52         1.4007    3.8365   47.0084 H       1  ZINC000438893617    0.0700
     53 H53         2.3231    2.7145   48.0374 H       1  ZINC000438893617    0.0700
     54 H54         1.1353    0.9187   49.3049 H       1  ZINC000438893617    0.0700
     55 H55        -0.6332    0.7614   49.1790 H       1  ZINC000438893617    0.0800
     56 H56        -1.7784    1.6408   49.0023 H       1  ZINC000438893617    0.1300
     57 H57        -1.9531    1.4583   50.7673 H       1  ZINC000438893617    0.0800
     58 H58        -4.1469    1.9869   49.9023 H       1  ZINC000438893617    0.1100
     59 H59        -3.5016    3.3388   48.9354 H       1  ZINC000438893617    0.0700
     60 H60        -9.1592   -1.7811   53.3262 H       1  ZINC000438893617    0.1700
     61 H61        -9.9137    0.1399   54.8027 H       1  ZINC000438893617    0.1400
@<TRIPOS>BOND
     1     1     2    1
     2     1    32    1
     3     1    33    1
     4     1    34    1
     5     2    31    1
     6     2     3    2
     7     3     4    1
     8     3    29    1
     9     4     5    1
    10     4     7    1
    11     4     6    1
    12     6     7    1
    13     6    35    1
    14     6    36    1
    15     7     8    1
    16     7     9    1
    17     9    10    2
    18     9    11   am
    19    11    28    1
    20    11    12    1
    21    12    13    1
    22    12    37    1
    23    12    38    1
    24    13    14    1
    25    13    39    1
    26    13    40    1
    27    14    15   am
    28    14    27    1
    29    15    16    2
    30    15    17    1
    31    17    25    1
    32    17    26    1
    33    17    18    1
    34    18    19    1
    35    18    41    1
    36    18    42    1
    37    19    24    1
    38    19    20    1
    39    19    43    1
    40    20    21    1
    41    20    44    1
    42    20    45    1
    43    21    22    1
    44    21    26    1
    45    21    46    1
    46    22    23    1
    47    22    47    1
    48    22    48    1
    49    23    24    1
    50    23    25    1
    51    23    49    1
    52    24    50    1
    53    24    51    1
    54    25    52    1
    55    25    53    1
    56    26    54    1
    57    26    55    1
    58    27    28    1
    59    27    56    1
    60    27    57    1
    61    28    58    1
    62    28    59    1
    63    29    30    1
    64    30    31    2
    65    30    60    1
    66    31    61    1
@<TRIPOS>SUBSTRUCTURE
     1 ZINC000438893617        1 TEMP              0 ****  ****    0 ROOT


##########                                Name:    ZINC000545381384
##########                DOCK_Rotatable_Bonds:                   6
##########                         Heavy_Atoms:                  30
##########                    Molecular_Weight:             405.543
##########                DOCK_Rotatable_Bonds:                   6
##########                       Formal_Charge:                0.05
##########                     HBond_Acceptors:                   6
##########                        HBond_Donors:                   1
##########                         Heavy_Atoms:                  30
##########                          Grid_Score:          -30.739853
##########                     Grid_vdw_energy:          -29.813044
##########                      Grid_es_energy:           -0.926809
##########           Internal_energy_repulsive:           21.252098

@<TRIPOS>MOLECULE
ZINC000545381384
 61 64 1 0 0
SMALL
USER_CHARGES


@<TRIPOS>ATOM
      1 C1         -1.7584    1.9085   46.0821 C.3     1  ZINC000545381384   -0.2000
      2 C2         -2.3319    1.4510   47.4248 C.3     1  ZINC000545381384    0.0500
      3 N3         -1.6991    2.2099   48.5118 N.3     1  ZINC000545381384   -0.5300
      4 C4         -0.5647    1.4670   49.0828 C.3     1  ZINC000545381384    0.0500
      5 C5          0.2737    2.4293   49.9237 C.3     1  ZINC000545381384   -0.0700
      6 C6         -0.6132    3.1725   50.8937 C.ar    1  ZINC000545381384    0.1800
      7 C7         -1.9907    3.2209   50.7152 C.ar    1  ZINC000545381384   -0.0800
      8 C8         -2.6712    2.5355   49.5604 C.3     1  ZINC000545381384    0.0900
      9 C9         -2.7795    3.9192   51.6262 C.ar    1  ZINC000545381384   -0.0700
     10 C10        -4.2470    3.9919   51.4614 C.2     1  ZINC000545381384    0.5800
     11 O11        -4.7602    5.0033   51.0242 O.2     1  ZINC000545381384   -0.4800
     12 N12        -5.0157    2.9366   51.7962 N.am    1  ZINC000545381384   -0.6400
     13 C13        -6.3986    3.0044   51.6394 C.2     1  ZINC000545381384    0.3000
     14 C14        -7.0677    3.7181   50.6923 C.2     1  ZINC000545381384   -0.2700
     15 C15        -8.4358    3.5109   50.8867 C.2     1  ZINC000545381384    0.1000
     16 C16        -9.5439    4.1115   50.0608 C.3     1  ZINC000545381384   -0.0300
     17 C17        -9.9653    5.4506   50.6693 C.3     1  ZINC000545381384   -0.0600
     18 C18        -8.7677    6.4027   50.6854 C.3     1  ZINC000545381384   -0.1500
     19 C19       -11.0903    6.0604   49.8307 C.3     1  ZINC000545381384   -0.1400
     20 C20       -10.4590    5.2278   52.1002 C.3     1  ZINC000545381384   -0.1400
     21 N21        -8.5918    2.7069   51.9070 N.2     1  ZINC000545381384   -0.2700
     22 N22        -7.3255    2.3662   52.3996 N.pl3   1  ZINC000545381384   -0.3900
     23 C23        -7.0505    1.4854   53.5375 C.3     1  ZINC000545381384    0.1000
     24 C24        -2.1369    4.5572   52.7150 C.ar    1  ZINC000545381384   -0.0700
     25 C25        -2.8601    5.2775   53.6741 C.ar    1  ZINC000545381384   -0.1100
     26 C26        -2.2011    5.8745   54.7067 C.ar    1  ZINC000545381384   -0.1000
     27 C27        -0.8157    5.7779   54.8206 C.ar    1  ZINC000545381384   -0.1000
     28 C28        -0.0825    5.0872   53.9061 C.ar    1  ZINC000545381384   -0.0900
     29 C29        -0.7279    4.4568   52.8261 C.ar    1  ZINC000545381384    0.1400
     30 N30        -0.0369    3.7735   51.9143 N.ar    1  ZINC000545381384   -0.4600
     31 H31        -1.9265    2.9787   45.9610 H       1  ZINC000545381384    0.0600
     32 H32        -0.6883    1.7035   46.0554 H       1  ZINC000545381384    0.0600
     33 H33        -2.2521    1.3695   45.2735 H       1  ZINC000545381384    0.0700
     34 H34        -3.4079    1.6251   47.4385 H       1  ZINC000545381384    0.0900
     35 H35        -2.1342    0.3878   47.5609 H       1  ZINC000545381384    0.0800
     36 H36        -0.9364    0.6589   49.7129 H       1  ZINC000545381384    0.0500
     37 H37         0.0458    1.0564   48.2786 H       1  ZINC000545381384    0.0900
     38 H38         1.0241    1.8657   50.4780 H       1  ZINC000545381384    0.1000
     39 H39         0.7712    3.1437   49.2678 H       1  ZINC000545381384    0.1000
     40 H40        -3.4362    3.1948   49.1502 H       1  ZINC000545381384    0.0900
     41 H41        -3.1420    1.6178   49.9129 H       1  ZINC000545381384    0.0700
     42 H42        -4.6063    2.1299   52.1462 H       1  ZINC000545381384    0.4100
     43 H43        -6.6205    4.3349   49.9269 H       1  ZINC000545381384    0.1700
     44 H44        -9.1921    4.2703   49.0414 H       1  ZINC000545381384    0.0800
     45 H45       -10.3971    3.4332   50.0492 H       1  ZINC000545381384    0.0800
     46 H46        -8.4159    6.5615   49.6661 H       1  ZINC000545381384    0.0500
     47 H47        -9.0679    7.3568   51.1189 H       1  ZINC000545381384    0.0500
     48 H48        -7.9661    5.9684   51.2829 H       1  ZINC000545381384    0.0800
     49 H49       -11.9435    5.3821   49.8192 H       1  ZINC000545381384    0.0600
     50 H50       -11.3905    7.0144   50.2642 H       1  ZINC000545381384    0.0600
     51 H51       -10.7386    6.2191   48.8113 H       1  ZINC000545381384    0.0600
     52 H52        -9.6574    4.7934   52.6976 H       1  ZINC000545381384    0.0500
     53 H53       -10.7592    6.1818   52.5336 H       1  ZINC000545381384    0.0500
     54 H54       -11.3121    4.5494   52.0886 H       1  ZINC000545381384    0.0500
     55 H55        -6.9540    0.4578   53.1866 H       1  ZINC000545381384    0.0800
     56 H56        -6.1226    1.7933   54.0194 H       1  ZINC000545381384    0.0800
     57 H57        -7.8701    1.5495   54.2531 H       1  ZINC000545381384    0.1000
     58 H58        -3.9341    5.3597   53.5956 H       1  ZINC000545381384    0.1300
     59 H59        -2.7596    6.4297   55.4458 H       1  ZINC000545381384    0.1300
     60 H60        -0.3158    6.2595   55.6481 H       1  ZINC000545381384    0.1400
     61 H61         0.9907    5.0229   54.0086 H       1  ZINC000545381384    0.1400
@<TRIPOS>BOND
     1     1     2    1
     2     1    31    1
     3     1    32    1
     4     1    33    1
     5     2     3    1
     6     2    34    1
     7     2    35    1
     8     3     8    1
     9     3     4    1
    10     4     5    1
    11     4    36    1
    12     4    37    1
    13     5     6    1
    14     5    38    1
    15     5    39    1
    16     6    30   ar
    17     6     7   ar
    18     7     8    1
    19     7     9   ar
    20     8    40    1
    21     8    41    1
    22     9    10    1
    23     9    24   ar
    24    10    11    2
    25    10    12   am
    26    12    13    1
    27    12    42    1
    28    13    22    1
    29    13    14    2
    30    14    15    1
    31    14    43    1
    32    15    16    1
    33    15    21    2
    34    16    17    1
    35    16    44    1
    36    16    45    1
    37    17    18    1
    38    17    19    1
    39    17    20    1
    40    18    46    1
    41    18    47    1
    42    18    48    1
    43    19    49    1
    44    19    50    1
    45    19    51    1
    46    20    52    1
    47    20    53    1
    48    20    54    1
    49    21    22    1
    50    22    23    1
    51    23    55    1
    52    23    56    1
    53    23    57    1
    54    24    29   ar
    55    24    25   ar
    56    25    26   ar
    57    25    58    1
    58    26    27   ar
    59    26    59    1
    60    27    28   ar
    61    27    60    1
    62    28    29   ar
    63    28    61    1
    64    29    30   ar
@<TRIPOS>SUBSTRUCTURE
     1 ZINC000545381384        1 TEMP              0 ****  ****    0 ROOT


##########                                Name:    ZINC000906038034
##########                DOCK_Rotatable_Bonds:                   5
##########                         Heavy_Atoms:                  23
##########                    Molecular_Weight:             387.428
##########                DOCK_Rotatable_Bonds:                   5
##########                       Formal_Charge:         -0.00999987
##########                     HBond_Acceptors:                  12
##########                        HBond_Donors:                   0
##########                         Heavy_Atoms:                  23
##########                          Grid_Score:          -30.696125
##########                     Grid_vdw_energy:          -29.438698
##########                      Grid_es_energy:           -1.257428
##########           Internal_energy_repulsive:            2.801805

@<TRIPOS>MOLECULE
ZINC000906038034
 35 36 1 0 0
SMALL
USER_CHARGES


@<TRIPOS>ATOM
      1 C1         -6.5876    1.0463   50.7729 C.3     1  ZINC000906038034    0.1000
      2 N2         -6.9548    1.0084   52.1907 N.pl3   1  ZINC000906038034   -0.3700
      3 C3         -6.3170    1.6528   53.1918 C.2     1  ZINC000906038034    0.0600
      4 C4         -6.9561    1.3675   54.3465 C.2     1  ZINC000906038034   -0.2500
      5 C5         -8.0342    0.5104   54.0432 C.2     1  ZINC000906038034    0.1200
      6 C6         -9.0000   -0.0503   55.0127 C.2     1  ZINC000906038034    0.1500
      7 N7         -9.0369    0.2213   56.2858 N.2     1  ZINC000906038034   -0.4300
      8 C8         -9.9689   -0.3725   56.9961 C.2     1  ZINC000906038034    0.0600
      9 C9        -10.1154   -0.1405   58.4778 C.3     1  ZINC000906038034   -0.5300
     10 S10        -9.0178   -1.2697   59.3782 S.o2    1  ZINC000906038034    2.4200
     11 O11        -9.1095   -2.5583   58.7862 O.2     1  ZINC000906038034   -0.9100
     12 O12        -7.7433   -0.6548   59.5076 O.2     1  ZINC000906038034   -0.9200
     13 C13        -9.8000   -1.3281   61.0138 C.3     1  ZINC000906038034   -0.6100
     14 C14        -9.5678   -0.0005   61.7379 C.3     1  ZINC000906038034   -0.4500
     15 S15        -8.1838   -0.1779   62.8971 S.o     1  ZINC000906038034    1.3300
     16 O16        -8.5224   -1.1290   63.8970 O.2     1  ZINC000906038034   -0.7600
     17 C17        -8.0649    1.4701   63.6458 C.3     1  ZINC000906038034    0.1200
     18 F18        -9.2686    1.7783   64.2888 F       1  ZINC000906038034   -0.1900
     19 F19        -7.0214    1.4847   64.5776 F       1  ZINC000906038034   -0.1700
     20 F20        -7.8129    2.4183   62.6485 F       1  ZINC000906038034   -0.1600
     21 C21       -10.7794   -1.1949   56.3229 C.2     1  ZINC000906038034   -0.2300
     22 S22       -10.2903   -1.1870   54.6296 S.3     1  ZINC000906038034    0.1600
     23 N23        -8.0318    0.3024   52.7417 N.2     1  ZINC000906038034   -0.2400
     24 H24        -7.1027    1.8744   50.2861 H       1  ZINC000906038034    0.0800
     25 H25        -5.5102    1.1838   50.6802 H       1  ZINC000906038034    0.0900
     26 H26        -6.8764    0.1089   50.2976 H       1  ZINC000906038034    0.0900
     27 H27        -5.4477    2.2852   53.0871 H       1  ZINC000906038034    0.1800
     28 H28        -6.6890    1.7307   55.3278 H       1  ZINC000906038034    0.1600
     29 H29        -9.8484    0.8899   58.7124 H       1  ZINC000906038034    0.1500
     30 H30       -11.1481   -0.3245   58.7741 H       1  ZINC000906038034    0.1600
     31 H31       -10.8707   -1.4968   60.8988 H       1  ZINC000906038034    0.1500
     32 H32        -9.3648   -2.1404   61.5959 H       1  ZINC000906038034    0.1500
     33 H33        -9.3339    0.7751   61.0087 H       1  ZINC000906038034    0.1600
     34 H34       -10.4681    0.2764   62.2866 H       1  ZINC000906038034    0.1300
     35 H35       -11.5960   -1.7631   56.7433 H       1  ZINC000906038034    0.1900
@<TRIPOS>BOND
     1     1     2    1
     2     1    24    1
     3     1    25    1
     4     1    26    1
     5     2    23    1
     6     2     3    1
     7     3     4    2
     8     3    27    1
     9     4     5    1
    10     4    28    1
    11     5     6    1
    12     5    23    2
    13     6    22    1
    14     6     7    2
    15     7     8    1
    16     8     9    1
    17     8    21    2
    18     9    10    1
    19     9    29    1
    20     9    30    1
    21    10    11    2
    22    10    12    2
    23    10    13    1
    24    13    14    1
    25    13    31    1
    26    13    32    1
    27    14    15    1
    28    14    33    1
    29    14    34    1
    30    15    16    2
    31    15    17    1
    32    17    18    1
    33    17    19    1
    34    17    20    1
    35    21    22    1
    36    21    35    1
@<TRIPOS>SUBSTRUCTURE
     1 ZINC000906038034        1 TEMP              0 ****  ****    0 ROOT


##########                                Name:    ZINC000648570180
##########                DOCK_Rotatable_Bonds:                   4
##########                         Heavy_Atoms:                  25
##########                    Molecular_Weight:             342.484
##########                DOCK_Rotatable_Bonds:                   4
##########                       Formal_Charge:          0.00999971
##########                     HBond_Acceptors:                   5
##########                        HBond_Donors:                   0
##########                         Heavy_Atoms:                  25
##########                          Grid_Score:          -30.685808
##########                     Grid_vdw_energy:          -29.923250
##########                      Grid_es_energy:           -0.762558
##########           Internal_energy_repulsive:           80.970100

@<TRIPOS>MOLECULE
ZINC000648570180
 55 58 1 0 0
SMALL
USER_CHARGES


@<TRIPOS>ATOM
      1 C1         -8.1499    1.3614   55.3842 C.3     1  ZINC000648570180   -0.1500
      2 C2         -9.4377    1.4633   54.5642 C.3     1  ZINC000648570180   -0.0600
      3 C3        -10.0582    0.0758   54.3892 C.3     1  ZINC000648570180   -0.1400
      4 C4        -10.4375    2.4059   55.2654 C.3     1  ZINC000648570180   -0.1200
      5 C5        -11.1285    3.1598   54.1020 C.3     1  ZINC000648570180   -0.1300
      6 C6         -9.9672    3.3827   53.1016 C.3     1  ZINC000648570180   -0.1200
      7 C7         -9.1387    2.0843   53.1885 C.3     1  ZINC000648570180   -0.0700
      8 H8         -9.4365    1.3975   52.3961 H       1  ZINC000648570180    0.0800
      9 C9         -7.6474    2.4053   53.0701 C.3     1  ZINC000648570180   -0.1000
     10 H10        -7.2638    2.8193   54.0026 H       1  ZINC000648570180    0.1000
     11 C11        -6.8403    1.1502   52.6453 C.3     1  ZINC000648570180   -0.1400
     12 C12        -5.6093    1.7541   51.9370 C.3     1  ZINC000648570180    0.1200
     13 N13        -5.9770    3.1099   51.5030 N.am    1  ZINC000648570180   -0.6000
     14 C14        -5.1675    3.9761   50.8622 C.2     1  ZINC000648570180    0.5800
     15 O15        -5.5793    5.0758   50.5509 O.2     1  ZINC000648570180   -0.5200
     16 C16        -3.7723    3.5864   50.5367 C.ar    1  ZINC000648570180    0.1600
     17 C17        -2.6970    4.3142   51.0455 C.ar    1  ZINC000648570180   -0.2000
     18 C18        -1.4105    3.9115   50.7139 C.ar    1  ZINC000648570180    0.1800
     19 N19        -1.2450    2.8593   49.9326 N.ar    1  ZINC000648570180   -0.5400
     20 C20        -2.2872    2.1870   49.4638 C.ar    1  ZINC000648570180    0.4800
     21 N21        -2.0702    1.0900   48.6479 N.3     1  ZINC000648570180   -0.4400
     22 C22        -1.3779    1.4869   47.3951 C.3     1  ZINC000648570180    0.0500
     23 C23        -0.7659    0.1556   46.8912 C.3     1  ZINC000648570180   -0.1200
     24 C24        -0.3279   -0.5407   48.2002 C.3     1  ZINC000648570180   -0.1300
     25 C25        -1.1816    0.1076   49.3058 C.3     1  ZINC000648570180    0.0400
     26 N26        -3.5289    2.5341   49.7595 N.ar    1  ZINC000648570180   -0.5000
     27 C27        -7.3785    3.3652   51.8844 C.3     1  ZINC000648570180    0.1100
     28 H28        -7.6581    2.3337   55.4106 H       1  ZINC000648570180    0.0600
     29 H29        -8.3901    1.0481   56.4003 H       1  ZINC000648570180    0.0500
     30 H30        -7.4844    0.6298   54.9262 H       1  ZINC000648570180    0.0700
     31 H31       -10.2774   -0.3504   55.3683 H       1  ZINC000648570180    0.0500
     32 H32       -10.9808    0.1602   53.8149 H       1  ZINC000648570180    0.0500
     33 H33        -9.3586   -0.5710   53.8598 H       1  ZINC000648570180    0.0500
     34 H34       -11.1680    1.8315   55.8350 H       1  ZINC000648570180    0.0600
     35 H35        -9.9111    3.1058   55.9143 H       1  ZINC000648570180    0.0700
     36 H36       -11.9111    2.5466   53.6552 H       1  ZINC000648570180    0.0700
     37 H37       -11.5313    4.1129   54.4448 H       1  ZINC000648570180    0.0700
     38 H38       -10.3546    3.5211   52.0922 H       1  ZINC000648570180    0.0700
     39 H39        -9.3650    4.2403   53.4011 H       1  ZINC000648570180    0.0700
     40 H40        -6.5378    0.5723   53.5186 H       1  ZINC000648570180    0.0900
     41 H41        -7.4186    0.5350   51.9558 H       1  ZINC000648570180    0.0800
     42 H42        -4.7693    1.8019   52.6300 H       1  ZINC000648570180    0.0800
     43 H43        -5.3446    1.1469   51.0715 H       1  ZINC000648570180    0.0700
     44 H44        -2.8612    5.1710   51.6822 H       1  ZINC000648570180    0.1600
     45 H45        -0.5548    4.4524   51.0902 H       1  ZINC000648570180    0.1800
     46 H46        -2.0902    1.8814   46.6704 H       1  ZINC000648570180    0.1000
     47 H47        -0.5950    2.2161   47.6028 H       1  ZINC000648570180    0.0500
     48 H48        -1.5147   -0.4400   46.3693 H       1  ZINC000648570180    0.0800
     49 H49         0.0941    0.3453   46.2489 H       1  ZINC000648570180    0.0800
     50 H50        -0.5292   -1.6106   48.1452 H       1  ZINC000648570180    0.0800
     51 H51         0.7312   -0.3633   48.3870 H       1  ZINC000648570180    0.0700
     52 H52        -0.5367    0.6133   50.0244 H       1  ZINC000648570180    0.0900
     53 H53        -1.7777   -0.6536   49.8091 H       1  ZINC000648570180    0.0900
     54 H54        -8.0455    3.1365   51.0532 H       1  ZINC000648570180    0.0700
     55 H55        -7.5035    4.4016   52.1980 H       1  ZINC000648570180    0.0800
@<TRIPOS>BOND
     1     1     2    1
     2     1    28    1
     3     1    29    1
     4     1    30    1
     5     2     7    1
     6     2     3    1
     7     2     4    1
     8     3    31    1
     9     3    32    1
    10     3    33    1
    11     4     5    1
    12     4    34    1
    13     4    35    1
    14     5     6    1
    15     5    36    1
    16     5    37    1
    17     6     7    1
    18     6    38    1
    19     6    39    1
    20     7     8    1
    21     7     9    1
    22     9    10    1
    23     9    27    1
    24     9    11    1
    25    11    12    1
    26    11    40    1
    27    11    41    1
    28    12    13    1
    29    12    42    1
    30    12    43    1
    31    13    14   am
    32    13    27    1
    33    14    15    2
    34    14    16    1
    35    16    26   ar
    36    16    17   ar
    37    17    18   ar
    38    17    44    1
    39    18    19   ar
    40    18    45    1
    41    19    20   ar
    42    20    21    1
    43    20    26   ar
    44    21    25    1
    45    21    22    1
    46    22    23    1
    47    22    46    1
    48    22    47    1
    49    23    24    1
    50    23    48    1
    51    23    49    1
    52    24    25    1
    53    24    50    1
    54    24    51    1
    55    25    52    1
    56    25    53    1
    57    27    54    1
    58    27    55    1
@<TRIPOS>SUBSTRUCTURE
     1 ZINC000648570180        1 TEMP              0 ****  ****    0 ROOT


##########                                Name:    ZINC001087843226
##########                DOCK_Rotatable_Bonds:                   6
##########                         Heavy_Atoms:                  27
##########                    Molecular_Weight:             368.479
##########                DOCK_Rotatable_Bonds:                   6
##########                       Formal_Charge:        -4.47035e-07
##########                     HBond_Acceptors:                   6
##########                        HBond_Donors:                   1
##########                         Heavy_Atoms:                  27
##########                          Grid_Score:          -30.683731
##########                     Grid_vdw_energy:          -29.718618
##########                      Grid_es_energy:           -0.965113
##########           Internal_energy_repulsive:           29.005968

@<TRIPOS>MOLECULE
ZINC001087843226
 55 58 1 0 0
SMALL
USER_CHARGES


@<TRIPOS>ATOM
      1 C1         -1.1079   -0.6913   49.1137 C.3     1  ZINC001087843226   -0.1500
      2 C2         -0.0469   -0.3580   48.0630 C.3     1  ZINC001087843226   -0.1500
      3 C3          0.4637    1.0667   48.2879 C.3     1  ZINC001087843226    0.0700
      4 H4          0.8564    1.1642   49.3000 H       1  ZINC001087843226    0.1000
      5 C5         -0.6832    2.0759   48.0702 C.3     1  ZINC001087843226    0.1300
      6 H6         -1.4562    1.6489   47.4312 H       1  ZINC001087843226    0.1000
      7 N7         -1.2502    2.5003   49.3527 N.am    1  ZINC001087843226   -0.7200
      8 C8         -2.5724    2.7391   49.4590 C.2     1  ZINC001087843226    0.5600
      9 O9         -3.2942    2.6037   48.4905 O.2     1  ZINC001087843226   -0.5300
     10 C10        -3.1448    3.1657   50.7537 C.ar    1  ZINC001087843226   -0.1400
     11 C11        -2.4169    4.0056   51.5959 C.ar    1  ZINC001087843226   -0.0800
     12 C12        -2.9565    4.4003   52.8029 C.ar    1  ZINC001087843226   -0.1300
     13 C13        -4.2142    3.9645   53.1753 C.ar    1  ZINC001087843226   -0.0400
     14 C14        -4.7959    4.4007   54.4954 C.3     1  ZINC001087843226   -0.1200
     15 C15        -4.9451    3.1295   52.3439 C.ar    1  ZINC001087843226   -0.1100
     16 C16        -4.4188    2.7320   51.1326 C.ar    1  ZINC001087843226   -0.0300
     17 C17        -5.4013    1.8301   50.4169 C.3     1  ZINC001087843226   -0.0800
     18 C18        -6.3932    1.3693   51.5061 C.3     1  ZINC001087843226   -0.1200
     19 C19        -6.3222    2.5274   52.5263 C.3     1  ZINC001087843226   -0.0800
     20 C20         0.0236    3.2603   47.3597 C.3     1  ZINC001087843226   -0.1400
     21 C21         1.0623    2.5219   46.4791 C.3     1  ZINC001087843226    0.0400
     22 N22         1.5193    1.3818   47.3079 N.3     1  ZINC001087843226   -0.5100
     23 C23         1.8273    0.2135   46.4722 C.3     1  ZINC001087843226    0.1100
     24 C24         2.9183    0.5685   45.4951 C.2     1  ZINC001087843226    0.0800
     25 N25         2.7313    1.0557   44.3049 N.2     1  ZINC001087843226   -0.2700
     26 O26         4.0090    1.2463   43.7185 O.3     1  ZINC001087843226    0.0300
     27 N27         4.9594    0.8225   44.6830 N.2     1  ZINC001087843226   -0.2800
     28 C28         4.3003    0.4295   45.7318 C.2     1  ZINC001087843226    0.0900
     29 C29         4.9176   -0.1021   46.9996 C.3     1  ZINC001087843226   -0.0900
     30 H30        -1.5208   -1.6797   48.9123 H       1  ZINC001087843226    0.0600
     31 H31        -0.6535   -0.6825   50.1044 H       1  ZINC001087843226    0.0600
     32 H32        -1.9053    0.0508   49.0731 H       1  ZINC001087843226    0.0600
     33 H33         0.7831   -1.0593   48.1494 H       1  ZINC001087843226    0.0800
     34 H34        -0.4847   -0.4341   47.0677 H       1  ZINC001087843226    0.0700
     35 H35        -0.6739    2.6095   50.1253 H       1  ZINC001087843226    0.4000
     36 H36        -1.4341    4.3457   51.3047 H       1  ZINC001087843226    0.1300
     37 H37        -2.3952    5.0503   53.4577 H       1  ZINC001087843226    0.1300
     38 H38        -5.3552    5.3260   54.3578 H       1  ZINC001087843226    0.0800
     39 H39        -5.4629    3.6255   54.8723 H       1  ZINC001087843226    0.0700
     40 H40        -3.9901    4.5661   55.2105 H       1  ZINC001087843226    0.0700
     41 H41        -5.9253    2.3842   49.6380 H       1  ZINC001087843226    0.0800
     42 H42        -4.8839    0.9716   49.9886 H       1  ZINC001087843226    0.0900
     43 H43        -7.3999    1.2755   51.0988 H       1  ZINC001087843226    0.0800
     44 H44        -6.0668    0.4316   51.9558 H       1  ZINC001087843226    0.0700
     45 H45        -6.4325    2.1447   53.5410 H       1  ZINC001087843226    0.0800
     46 H46        -7.0947    3.2664   52.3139 H       1  ZINC001087843226    0.0800
     47 H47        -0.6796    3.8229   46.7456 H       1  ZINC001087843226    0.0800
     48 H48         0.5162    3.9110   48.0821 H       1  ZINC001087843226    0.0800
     49 H49         0.5953    2.1629   45.5619 H       1  ZINC001087843226    0.0600
     50 H50         1.8994    3.1803   46.2472 H       1  ZINC001087843226    0.0800
     51 H51         2.1602   -0.6087   47.1056 H       1  ZINC001087843226    0.1200
     52 H52         0.9338   -0.0878   45.9254 H       1  ZINC001087843226    0.0700
     53 H53         5.0179    0.7077   47.7223 H       1  ZINC001087843226    0.1000
     54 H54         4.2798   -0.8825   47.4147 H       1  ZINC001087843226    0.0900
     55 H55         5.9014   -0.5160   46.7788 H       1  ZINC001087843226    0.0900
@<TRIPOS>BOND
     1     1     2    1
     2     1    30    1
     3     1    31    1
     4     1    32    1
     5     2     3    1
     6     2    33    1
     7     2    34    1
     8     3     4    1
     9     3    22    1
    10     3     5    1
    11     5     6    1
    12     5     7    1
    13     5    20    1
    14     7     8   am
    15     7    35    1
    16     8     9    2
    17     8    10    1
    18    10    16   ar
    19    10    11   ar
    20    11    12   ar
    21    11    36    1
    22    12    13   ar
    23    12    37    1
    24    13    14    1
    25    13    15   ar
    26    14    38    1
    27    14    39    1
    28    14    40    1
    29    15    19    1
    30    15    16   ar
    31    16    17    1
    32    17    18    1
    33    17    41    1
    34    17    42    1
    35    18    19    1
    36    18    43    1
    37    18    44    1
    38    19    45    1
    39    19    46    1
    40    20    21    1
    41    20    47    1
    42    20    48    1
    43    21    22    1
    44    21    49    1
    45    21    50    1
    46    22    23    1
    47    23    24    1
    48    23    51    1
    49    23    52    1
    50    24    28    1
    51    24    25    2
    52    25    26    1
    53    26    27    1
    54    27    28    2
    55    28    29    1
    56    29    53    1
    57    29    54    1
    58    29    55    1
@<TRIPOS>SUBSTRUCTURE
     1 ZINC001087843226        1 TEMP              0 ****  ****    0 ROOT


##########                                Name:    ZINC000281092425
##########                DOCK_Rotatable_Bonds:                   8
##########                         Heavy_Atoms:                  23
##########                    Molecular_Weight:             332.304
##########                DOCK_Rotatable_Bonds:                   8
##########                       Formal_Charge:         2.98023e-08
##########                     HBond_Acceptors:                   9
##########                        HBond_Donors:                   2
##########                         Heavy_Atoms:                  23
##########                          Grid_Score:          -30.674826
##########                     Grid_vdw_energy:          -29.748922
##########                      Grid_es_energy:           -0.925903
##########           Internal_energy_repulsive:           16.934837

@<TRIPOS>MOLECULE
ZINC000281092425
 41 42 1 0 0
SMALL
USER_CHARGES


@<TRIPOS>ATOM
      1 O1          2.4089    0.4461   47.2934 O.2     1  ZINC000281092425   -0.1800
      2 N2          1.4333    0.6352   46.5890 N.pl3   1  ZINC000281092425    0.0400
      3 O3          1.4910    0.4051   45.3943 O.2     1  ZINC000281092425   -0.1500
      4 C4          0.1760    1.1388   47.1859 C.ar    1  ZINC000281092425   -0.1200
      5 C5          0.1117    1.3994   48.5412 C.ar    1  ZINC000281092425    0.0200
      6 C6         -1.0601    1.8696   49.1022 C.ar    1  ZINC000281092425   -0.2200
      7 C7         -2.1770    2.0818   48.3037 C.ar    1  ZINC000281092425    0.3000
      8 N8         -3.3617    2.5575   48.8703 N.pl3   1  ZINC000281092425   -0.7200
      9 C9         -3.5718    2.4613   50.3170 C.3     1  ZINC000281092425    0.1200
     10 C10        -4.9347    3.0574   50.6751 C.3     1  ZINC000281092425   -0.0900
     11 H11        -4.9827    4.0892   50.3271 H       1  ZINC000281092425    0.0900
     12 C12        -6.0408    2.2408   50.0041 C.3     1  ZINC000281092425    0.0800
     13 O13        -5.9543    0.8800   50.4315 O.3     1  ZINC000281092425   -0.5700
     14 C14        -5.1239    3.0219   52.1930 C.3     1  ZINC000281092425   -0.1100
     15 H15        -5.1137    1.9954   52.5596 H       1  ZINC000281092425    0.0900
     16 C16        -4.0384    3.8739   52.9055 C.3     1  ZINC000281092425   -0.1600
     17 C17        -4.7894    4.2876   54.1961 C.3     1  ZINC000281092425    0.0500
     18 O18        -6.1504    4.4968   53.7874 O.3     1  ZINC000281092425   -0.3900
     19 C19        -6.4293    3.7380   52.6008 C.3     1  ZINC000281092425    0.0700
     20 C20        -2.1139    1.8207   46.9416 C.ar    1  ZINC000281092425   -0.2800
     21 C21        -0.9352    1.3539   46.3822 C.ar    1  ZINC000281092425    0.2300
     22 O22        -0.8700    1.0978   45.0491 O.3     1  ZINC000281092425   -0.2900
     23 C23        -1.8201    0.1714   44.5192 C.3     1  ZINC000281092425    0.4100
     24 F24        -1.4593   -0.1698   43.2112 F       1  ZINC000281092425   -0.1900
     25 F25        -1.8408   -0.9806   45.3127 F       1  ZINC000281092425   -0.1900
     26 H26         0.9790    1.2351   49.1634 H       1  ZINC000281092425    0.1600
     27 H27        -1.1080    2.0719   50.1619 H       1  ZINC000281092425    0.1500
     28 H28        -4.0452    2.9515   48.3062 H       1  ZINC000281092425    0.4100
     29 H29        -3.5423    1.4146   50.6197 H       1  ZINC000281092425    0.0800
     30 H30        -2.7869    3.0118   50.8356 H       1  ZINC000281092425    0.0800
     31 H31        -7.0129    2.6479   50.2823 H       1  ZINC000281092425    0.0500
     32 H32        -5.9228    2.2898   48.9215 H       1  ZINC000281092425    0.0500
     33 H33        -6.6476    0.3099   50.0717 H       1  ZINC000281092425    0.3800
     34 H34        -3.1583    3.2743   53.1380 H       1  ZINC000281092425    0.0800
     35 H35        -3.7706    4.7468   52.3100 H       1  ZINC000281092425    0.0800
     36 H36        -4.7353    3.4901   54.9373 H       1  ZINC000281092425    0.0600
     37 H37        -4.3694    5.2090   54.5993 H       1  ZINC000281092425    0.0900
     38 H38        -6.7469    4.4064   51.8005 H       1  ZINC000281092425    0.0800
     39 H39        -7.2111    3.0063   52.8051 H       1  ZINC000281092425    0.0700
     40 H40        -2.9807    1.9849   46.3185 H       1  ZINC000281092425    0.1500
     41 H41        -2.8099    0.6280   44.5158 H       1  ZINC000281092425    0.1900
@<TRIPOS>BOND
     1     1     2    2
     2     2     3    2
     3     2     4    1
     4     4    21   ar
     5     4     5   ar
     6     5     6   ar
     7     5    26    1
     8     6     7   ar
     9     6    27    1
    10     7     8    1
    11     7    20   ar
    12     8     9    1
    13     8    28    1
    14     9    10    1
    15     9    29    1
    16     9    30    1
    17    10    11    1
    18    10    12    1
    19    10    14    1
    20    12    13    1
    21    12    31    1
    22    12    32    1
    23    13    33    1
    24    14    15    1
    25    14    19    1
    26    14    16    1
    27    16    17    1
    28    16    34    1
    29    16    35    1
    30    17    18    1
    31    17    36    1
    32    17    37    1
    33    18    19    1
    34    19    38    1
    35    19    39    1
    36    20    21   ar
    37    20    40    1
    38    21    22    1
    39    22    23    1
    40    23    24    1
    41    23    25    1
    42    23    41    1
@<TRIPOS>SUBSTRUCTURE
     1 ZINC000281092425        1 TEMP              0 ****  ****    0 ROOT


##########                                Name:    ZINC000437443367
##########                DOCK_Rotatable_Bonds:                   8
##########                         Heavy_Atoms:                  24
##########                    Molecular_Weight:             334.434
##########                DOCK_Rotatable_Bonds:                   8
##########                       Formal_Charge:          -0.0500003
##########                     HBond_Acceptors:                   5
##########                        HBond_Donors:                   1
##########                         Heavy_Atoms:                  24
##########                          Grid_Score:          -30.643991
##########                     Grid_vdw_energy:          -30.466599
##########                      Grid_es_energy:           -0.177392
##########           Internal_energy_repulsive:           20.931068

@<TRIPOS>MOLECULE
ZINC000437443367
 51 52 1 0 0
SMALL
USER_CHARGES


@<TRIPOS>ATOM
      1 C1          2.8588    0.6655   43.0750 C.3     1  ZINC000437443367   -0.1200
      2 C2          1.3816    0.4189   43.2417 C.ar    1  ZINC000437443367   -0.1000
      3 C3          0.7863    0.6021   44.4738 C.ar    1  ZINC000437443367   -0.1200
      4 C4         -0.5758    0.3745   44.6268 C.ar    1  ZINC000437443367    0.1400
      5 N5         -1.1808    0.5598   45.8735 N.am    1  ZINC000437443367   -0.6400
      6 C6         -1.4942    1.8018   46.2925 C.2     1  ZINC000437443367    0.5000
      7 O7         -1.2512    2.7596   45.5876 O.2     1  ZINC000437443367   -0.4800
      8 C8         -2.1406    1.9997   47.6243 C.2     1  ZINC000437443367    0.5100
      9 O9         -3.3449    2.1282   47.7012 O.2     1  ZINC000437443367   -0.5200
     10 N10        -1.3863    2.0357   48.7407 N.am    1  ZINC000437443367   -0.5700
     11 C11        -2.0202    2.2298   50.0471 C.3     1  ZINC000437443367    0.0900
     12 C12        -2.5076    3.6752   50.1677 C.3     1  ZINC000437443367   -0.1200
     13 C13        -2.9310    3.9517   51.6117 C.3     1  ZINC000437443367   -0.0900
     14 C14        -2.6811    5.4243   51.9434 C.3     1  ZINC000437443367   -0.1400
     15 C15        -4.4193    3.6373   51.7758 C.3     1  ZINC000437443367   -0.1500
     16 C16         0.0675    1.8806   48.6477 C.3     1  ZINC000437443367    0.1300
     17 C17         0.7663    3.1928   49.0596 C.3     1  ZINC000437443367   -0.1300
     18 C18         1.1115    2.9860   50.5553 C.3     1  ZINC000437443367   -0.1300
     19 C19         1.5195    1.4927   50.6086 C.3     1  ZINC000437443367   -0.1200
     20 C20         0.5463    0.7996   49.6326 C.3     1  ZINC000437443367   -0.1400
     21 C21        -1.3355   -0.0370   43.5393 C.ar    1  ZINC000437443367   -0.1100
     22 C22        -0.7357   -0.2189   42.3086 C.ar    1  ZINC000437443367   -0.1300
     23 C23         0.6209    0.0139   42.1571 C.ar    1  ZINC000437443367    0.0800
     24 F24         1.2056   -0.1647   40.9524 F       1  ZINC000437443367   -0.1400
     25 H25         3.0247    1.7075   42.8016 H       1  ZINC000437443367    0.0800
     26 H26         3.3712    0.4500   44.0126 H       1  ZINC000437443367    0.0700
     27 H27         3.2492    0.0175   42.2904 H       1  ZINC000437443367    0.0700
     28 H28         1.3789    0.9217   45.3182 H       1  ZINC000437443367    0.1400
     29 H29        -1.3752   -0.2056   46.4368 H       1  ZINC000437443367    0.4200
     30 H30        -2.8676    1.5513   50.1441 H       1  ZINC000437443367    0.0900
     31 H31        -1.2971    2.0232   50.8361 H       1  ZINC000437443367    0.1000
     32 H32        -1.7023    4.3546   49.8887 H       1  ZINC000437443367    0.0700
     33 H33        -3.3585    3.8281   49.5040 H       1  ZINC000437443367    0.0600
     34 H34        -2.3503    3.3235   52.2873 H       1  ZINC000437443367    0.0600
     35 H35        -3.2618    6.0523   51.2678 H       1  ZINC000437443367    0.0600
     36 H36        -2.9827    5.6213   52.9720 H       1  ZINC000437443367    0.0400
     37 H37        -1.6208    5.6482   51.8264 H       1  ZINC000437443367    0.0600
     38 H38        -4.5974    2.5883   51.5396 H       1  ZINC000437443367    0.0500
     39 H39        -4.7210    3.8344   52.8046 H       1  ZINC000437443367    0.0500
     40 H40        -5.0000    4.2655   51.1004 H       1  ZINC000437443367    0.0500
     41 H41         0.3496    1.6100   47.6301 H       1  ZINC000437443367    0.1000
     42 H42         1.6745    3.3410   48.4755 H       1  ZINC000437443367    0.0800
     43 H43         0.0906    4.0393   48.9376 H       1  ZINC000437443367    0.0700
     44 H44         1.9438    3.6245   50.8516 H       1  ZINC000437443367    0.0700
     45 H45         0.2393    3.1707   51.1822 H       1  ZINC000437443367    0.0700
     46 H46         2.5493    1.3663   50.2745 H       1  ZINC000437443367    0.0700
     47 H47         1.3935    1.0985   51.6170 H       1  ZINC000437443367    0.0700
     48 H48        -0.3029    0.3904   50.1797 H       1  ZINC000437443367    0.0800
     49 H49         1.0616    0.0048   49.0931 H       1  ZINC000437443367    0.0700
     50 H50        -2.3943   -0.2147   43.6560 H       1  ZINC000437443367    0.1600
     51 H51        -1.3260   -0.5388   41.4626 H       1  ZINC000437443367    0.1400
@<TRIPOS>BOND
     1     1     2    1
     2     1    25    1
     3     1    26    1
     4     1    27    1
     5     2    23   ar
     6     2     3   ar
     7     3     4   ar
     8     3    28    1
     9     4     5    1
    10     4    21   ar
    11     5     6   am
    12     5    29    1
    13     6     7    2
    14     6     8    1
    15     8     9    2
    16     8    10   am
    17    10    11    1
    18    10    16    1
    19    11    12    1
    20    11    30    1
    21    11    31    1
    22    12    13    1
    23    12    32    1
    24    12    33    1
    25    13    14    1
    26    13    15    1
    27    13    34    1
    28    14    35    1
    29    14    36    1
    30    14    37    1
    31    15    38    1
    32    15    39    1
    33    15    40    1
    34    16    20    1
    35    16    17    1
    36    16    41    1
    37    17    18    1
    38    17    42    1
    39    17    43    1
    40    18    19    1
    41    18    44    1
    42    18    45    1
    43    19    20    1
    44    19    46    1
    45    19    47    1
    46    20    48    1
    47    20    49    1
    48    21    22   ar
    49    21    50    1
    50    22    23   ar
    51    22    51    1
    52    23    24    1
@<TRIPOS>SUBSTRUCTURE
     1 ZINC000437443367        1 TEMP              0 ****  ****    0 ROOT


##########                                Name:    ZINC000182378855
##########                DOCK_Rotatable_Bonds:                   8
##########                         Heavy_Atoms:                  27
##########                    Molecular_Weight:              394.83
##########                DOCK_Rotatable_Bonds:                   8
##########                       Formal_Charge:          -0.0200001
##########                     HBond_Acceptors:                   8
##########                        HBond_Donors:                   1
##########                         Heavy_Atoms:                  27
##########                          Grid_Score:          -30.605145
##########                     Grid_vdw_energy:          -29.826628
##########                      Grid_es_energy:           -0.778517
##########           Internal_energy_repulsive:           10.131264

@<TRIPOS>MOLECULE
ZINC000182378855
 47 49 1 0 0
SMALL
USER_CHARGES


@<TRIPOS>ATOM
      1 C1         -1.0146    0.8877   49.2275 C.3     1  ZINC000182378855    0.0300
      2 O2         -2.2771    0.8818   48.5581 O.3     1  ZINC000182378855   -0.3900
      3 C3         -2.9537    2.1402   48.5821 C.3     1  ZINC000182378855    0.0600
      4 C4         -3.8323    2.2232   49.8319 C.3     1  ZINC000182378855    0.0700
      5 O5         -5.0455    1.5013   49.6102 O.3     1  ZINC000182378855   -0.2900
      6 C6         -5.7659    1.1556   50.7068 C.ar    1  ZINC000182378855    0.3300
      7 C7         -5.8626    2.0414   51.7716 C.ar    1  ZINC000182378855   -0.1300
      8 C8         -6.6074    1.6713   52.8930 C.ar    1  ZINC000182378855   -0.0600
      9 C9         -6.7396    2.5833   54.0532 C.2     1  ZINC000182378855    0.5600
     10 O10        -6.3011    3.7147   53.9898 O.2     1  ZINC000182378855   -0.5200
     11 N11        -7.3464    2.1580   55.1790 N.am    1  ZINC000182378855   -0.7100
     12 C12        -7.4787    3.0603   56.3256 C.3     1  ZINC000182378855    0.1200
     13 H13        -7.5623    4.0937   55.9894 H       1  ZINC000182378855    0.1100
     14 C14        -6.2773    2.8981   57.2836 C.3     1  ZINC000182378855   -0.1700
     15 C15        -6.9153    2.4263   58.6090 C.3     1  ZINC000182378855    0.0400
     16 O16        -8.1641    1.8138   58.2201 O.3     1  ZINC000182378855   -0.3600
     17 C17        -8.7003    2.6671   57.1855 C.3     1  ZINC000182378855    0.1100
     18 H18        -9.1568    3.5545   57.6242 H       1  ZINC000182378855    0.1000
     19 C19        -9.7068    1.9144   56.3540 C.ar    1  ZINC000182378855   -0.0500
     20 C20       -10.5484    2.6013   55.4993 C.ar    1  ZINC000182378855   -0.1100
     21 C21       -11.4686    1.9119   54.7314 C.ar    1  ZINC000182378855   -0.0800
     22 C22       -11.5556    0.5351   54.8262 C.ar    1  ZINC000182378855   -0.0700
     23 Cl23      -12.7153   -0.3300   53.8671 Cl      1  ZINC000182378855   -0.0400
     24 C24       -10.7159   -0.1535   55.6872 C.ar    1  ZINC000182378855    0.1200
     25 F25       -10.7991   -1.4987   55.7808 F       1  ZINC000182378855   -0.1200
     26 C26        -9.7916    0.5380   56.4508 C.ar    1  ZINC000182378855   -0.1300
     27 C27        -7.2260    0.4162   52.8916 C.ar    1  ZINC000182378855   -0.1900
     28 C28        -7.0791   -0.4040   51.7913 C.ar    1  ZINC000182378855    0.1400
     29 N29        -6.3720   -0.0185   50.7470 N.ar    1  ZINC000182378855   -0.5200
     30 H30        -1.1597    1.1551   50.2743 H       1  ZINC000182378855    0.0400
     31 H31        -0.5653   -0.1033   49.1645 H       1  ZINC000182378855    0.0900
     32 H32        -0.3560    1.6160   48.7544 H       1  ZINC000182378855    0.0400
     33 H33        -2.2206    2.9467   48.5992 H       1  ZINC000182378855    0.0600
     34 H34        -3.5771    2.2346   47.6929 H       1  ZINC000182378855    0.0700
     35 H35        -3.3010    1.7894   50.6791 H       1  ZINC000182378855    0.0800
     36 H36        -4.0643    3.2669   50.0444 H       1  ZINC000182378855    0.0800
     37 H37        -5.3692    3.0014   51.7332 H       1  ZINC000182378855    0.1600
     38 H38        -7.6954    1.2544   55.2301 H       1  ZINC000182378855    0.4000
     39 H39        -5.5850    2.1466   56.9041 H       1  ZINC000182378855    0.0900
     40 H40        -5.7685    3.8519   57.4229 H       1  ZINC000182378855    0.0900
     41 H41        -6.2721    1.6967   59.1011 H       1  ZINC000182378855    0.1000
     42 H42        -7.0962    3.2763   59.2668 H       1  ZINC000182378855    0.0700
     43 H43       -10.4843    3.6771   55.4283 H       1  ZINC000182378855    0.1500
     44 H44       -12.1226    2.4493   54.0607 H       1  ZINC000182378855    0.1500
     45 H45        -9.1364    0.0024   57.1219 H       1  ZINC000182378855    0.1500
     46 H46        -7.8110    0.0937   53.7402 H       1  ZINC000182378855    0.1400
     47 H47        -7.5540   -1.3739   51.7837 H       1  ZINC000182378855    0.1700
@<TRIPOS>BOND
     1     1     2    1
     2     1    30    1
     3     1    31    1
     4     1    32    1
     5     2     3    1
     6     3     4    1
     7     3    33    1
     8     3    34    1
     9     4     5    1
    10     4    35    1
    11     4    36    1
    12     5     6    1
    13     6    29   ar
    14     6     7   ar
    15     7     8   ar
    16     7    37    1
    17     8     9    1
    18     8    27   ar
    19     9    10    2
    20     9    11   am
    21    11    12    1
    22    11    38    1
    23    12    13    1
    24    12    17    1
    25    12    14    1
    26    14    15    1
    27    14    39    1
    28    14    40    1
    29    15    16    1
    30    15    41    1
    31    15    42    1
    32    16    17    1
    33    17    18    1
    34    17    19    1
    35    19    26   ar
    36    19    20   ar
    37    20    21   ar
    38    20    43    1
    39    21    22   ar
    40    21    44    1
    41    22    23    1
    42    22    24   ar
    43    24    25    1
    44    24    26   ar
    45    26    45    1
    46    27    28   ar
    47    27    46    1
    48    28    29   ar
    49    28    47    1
@<TRIPOS>SUBSTRUCTURE
     1 ZINC000182378855        1 TEMP              0 ****  ****    0 ROOT


##########                                Name:    ZINC000286156371
##########                DOCK_Rotatable_Bonds:                   7
##########                         Heavy_Atoms:                  25
##########                    Molecular_Weight:             350.418
##########                DOCK_Rotatable_Bonds:                   7
##########                       Formal_Charge:          0.00999908
##########                     HBond_Acceptors:                   8
##########                        HBond_Donors:                   2
##########                         Heavy_Atoms:                  25
##########                          Grid_Score:          -30.602802
##########                     Grid_vdw_energy:          -29.091619
##########                      Grid_es_energy:           -1.511183
##########           Internal_energy_repulsive:           12.593500

@<TRIPOS>MOLECULE
ZINC000286156371
 51 53 1 0 0
SMALL
USER_CHARGES


@<TRIPOS>ATOM
      1 C1          2.7310    1.4799   48.8279 C.3     1  <0>        -0.1800
      2 C2          2.0023    2.2787   49.9105 C.3     1  <0>         0.1400
      3 C3          1.9195    1.4449   51.1906 C.3     1  <0>        -0.1800
      4 C4          2.7692    3.5721   50.1930 C.3     1  <0>        -0.1400
      5 O5          0.6618    2.6004   49.4548 O.3     1  <0>        -0.3600
      6 C6          0.5374    3.0536   48.1931 C.2     1  <0>         0.6800
      7 O7          0.9781    4.1457   47.8937 O.2     1  <0>        -0.5600
      8 N8         -0.0761    2.2962   47.2624 N.am    1  <0>        -0.5800
      9 C9         -0.2802    2.6679   45.8504 C.3     1  <0>         0.0700
     10 C10        -0.4273    1.3192   45.1026 C.3     1  <0>         0.0900
     11 H11        -0.9971    1.4433   44.1817 H       1  <0>         0.0900
     12 O12         0.8513    0.7391   44.8364 O.3     1  <0>        -0.5500
     13 C13        -1.2179    0.4745   46.1364 C.3     1  <0>        -0.1200
     14 C14        -0.6468    0.9598   47.4854 C.3     1  <0>         0.1500
     15 H15         0.1271    0.2733   47.8287 H       1  <0>         0.1100
     16 C16        -1.7497    1.0419   48.5090 C.2     1  <0>         0.5200
     17 O17        -1.9174    0.1328   49.2941 O.2     1  <0>        -0.4900
     18 N18        -2.5498    2.1257   48.5519 N.am    1  <0>        -0.6300
     19 C19        -3.5746    2.2029   49.5050 C.2     1  <0>         0.3000
     20 N20        -4.7656    1.6576   49.4029 N.2     1  <0>        -0.3200
     21 N21        -5.4848    1.9662   50.5597 N.pl3   1  <0>        -0.3600
     22 C22        -6.8573    1.5693   50.8887 C.3     1  <0>         0.1400
     23 C23        -7.0753    1.7480   52.3949 C.3     1  <0>        -0.1400
     24 C24        -6.6313    3.1525   52.8140 C.3     1  <0>        -0.1300
     25 C25        -5.1039    3.2514   52.7077 C.3     1  <0>        -0.0600
     26 C26        -4.6901    2.7146   51.3596 C.2     1  <0>         0.0900
     27 C27        -3.5048    2.8723   50.7393 C.2     1  <0>        -0.2600
     28 H28         2.1848    0.5584   48.6266 H       1  <0>         0.0900
     29 H29         2.7901    2.0739   47.9159 H       1  <0>         0.0600
     30 H30         3.7374    1.2384   49.1699 H       1  <0>         0.0700
     31 H31         2.9258    1.2034   51.5327 H       1  <0>         0.0700
     32 H32         1.4005    2.0139   51.9619 H       1  <0>         0.0600
     33 H33         1.3732    0.5234   50.9893 H       1  <0>         0.0900
     34 H34         2.8282    4.1662   49.2810 H       1  <0>         0.0700
     35 H35         2.2501    4.1411   50.9643 H       1  <0>         0.0700
     36 H36         3.7756    3.3306   50.5351 H       1  <0>         0.0800
     37 H37        -1.1872    3.2626   45.7420 H       1  <0>         0.0800
     38 H38         0.5824    3.2180   45.4744 H       1  <0>         0.0900
     39 H39         0.8517   -0.2280   44.8348 H       1  <0>         0.3900
     40 H40        -2.2857    0.6822   46.0683 H       1  <0>         0.1000
     41 H41        -1.0211   -0.5886   45.9969 H       1  <0>         0.1100
     42 H42        -2.4165    2.8523   47.9232 H       1  <0>         0.4200
     43 H43        -7.5603    2.1966   50.3407 H       1  <0>         0.0800
     44 H44        -7.0099    0.5243   50.6189 H       1  <0>         0.0900
     45 H45        -8.1323    1.6171   52.6268 H       1  <0>         0.0900
     46 H46        -6.4902    1.0053   52.9372 H       1  <0>         0.0800
     47 H47        -7.0907    3.8909   52.1568 H       1  <0>         0.0700
     48 H48        -6.9375    3.3393   53.8433 H       1  <0>         0.0800
     49 H49        -4.7954    4.2928   52.7994 H       1  <0>         0.0900
     50 H50        -4.6412    2.6592   53.4972 H       1  <0>         0.0900
     51 H51        -2.6541    3.4173   51.1209 H       1  <0>         0.1700
@<TRIPOS>BOND
     1     1     2    1
     2     1    28    1
     3     1    29    1
     4     1    30    1
     5     2     3    1
     6     2     4    1
     7     2     5    1
     8     3    31    1
     9     3    32    1
    10     3    33    1
    11     4    34    1
    12     4    35    1
    13     4    36    1
    14     5     6    1
    15     6     7    2
    16     6     8   am
    17     8    14    1
    18     8     9    1
    19     9    10    1
    20     9    37    1
    21     9    38    1
    22    10    11    1
    23    10    12    1
    24    10    13    1
    25    12    39    1
    26    13    14    1
    27    13    40    1
    28    13    41    1
    29    14    15    1
    30    14    16    1
    31    16    17    2
    32    16    18   am
    33    18    19    1
    34    18    42    1
    35    19    27    1
    36    19    20    2
    37    20    21    1
    38    21    26    1
    39    21    22    1
    40    22    23    1
    41    22    43    1
    42    22    44    1
    43    23    24    1
    44    23    45    1
    45    23    46    1
    46    24    25    1
    47    24    47    1
    48    24    48    1
    49    25    26    1
    50    25    49    1
    51    25    50    1
    52    26    27    2
    53    27    51    1
@<TRIPOS>SUBSTRUCTURE
     1 <0>         1 TEMP              0 ****  ****    0 ROOT


##########                                Name:    ZINC000944933040
##########                DOCK_Rotatable_Bonds:                   4
##########                         Heavy_Atoms:                  26
##########                    Molecular_Weight:             354.449
##########                DOCK_Rotatable_Bonds:                   4
##########                       Formal_Charge:           0.0100002
##########                     HBond_Acceptors:                   5
##########                        HBond_Donors:                   0
##########                         Heavy_Atoms:                  26
##########                          Grid_Score:          -30.587946
##########                     Grid_vdw_energy:          -30.574989
##########                      Grid_es_energy:           -0.012957
##########           Internal_energy_repulsive:            8.075318

@<TRIPOS>MOLECULE
ZINC000944933040
 52 57 1 0 0
SMALL
USER_CHARGES


@<TRIPOS>ATOM
      1 O1         -1.6687    4.2235   50.3700 O.2     1  ZINC000944933040   -0.5200
      2 C2         -2.4845    3.3777   50.0568 C.2     1  ZINC000944933040    0.6400
      3 C3         -2.0889    2.2681   49.2425 C.1     1  ZINC000944933040   -0.2200
      4 C4         -1.7646    1.3585   48.5750 C.1     1  ZINC000944933040   -0.0400
      5 C5         -1.3580    0.2180   47.7379 C.3     1  ZINC000944933040   -0.0700
      6 C6          0.0566   -0.3318   47.9319 C.3     1  ZINC000944933040   -0.1600
      7 C7         -1.1494   -1.1293   48.4326 C.3     1  ZINC000944933040   -0.1600
      8 N8         -3.7596    3.4817   50.4806 N.am    1  ZINC000944933040   -0.6000
      9 C9         -4.1782    4.6187   51.3110 C.3     1  ZINC000944933040    0.1100
     10 C10        -4.8059    4.0813   52.6027 C.3     1  ZINC000944933040   -0.1200
     11 C11        -5.8944    3.0716   52.2472 C.3     1  ZINC000944933040   -0.0900
     12 C12        -6.7418    2.6320   53.4491 C.3     1  ZINC000944933040    0.1200
     13 N13        -7.9020    2.7545   52.5439 N.am    1  ZINC000944933040   -0.6400
     14 C14        -9.1335    2.2078   52.5084 C.2     1  ZINC000944933040    0.5500
     15 O15        -9.9015    2.5008   51.6167 O.2     1  ZINC000944933040   -0.5300
     16 C16        -9.5561    1.2326   53.5767 C.3     1  ZINC000944933040   -0.1300
     17 H17        -9.1453    1.5202   54.5445 H       1  ZINC000944933040    0.1100
     18 C18        -9.1267   -0.2095   53.2047 C.3     1  ZINC000944933040   -0.1300
     19 C19       -10.4886   -0.9599   53.1042 C.3     1  ZINC000944933040    0.0900
     20 H20       -10.4773   -1.8710   52.5061 H       1  ZINC000944933040    0.1300
     21 O21       -11.3677    0.1073   52.6189 O.3     1  ZINC000944933040   -0.3600
     22 C22       -11.1092    1.1279   53.6454 C.3     1  ZINC000944933040    0.1200
     23 H23       -11.6581    2.0626   53.5309 H       1  ZINC000944933040    0.1400
     24 C24       -11.4122    0.3305   54.9495 C.3     1  ZINC000944933040   -0.2000
     25 H25       -11.1725    0.7963   55.9053 H       1  ZINC000944933040    0.1200
     26 C26       -12.4828   -0.7596   54.8709 C.3     1  ZINC000944933040   -0.1300
     27 C27       -10.9735   -1.1322   54.5750 C.3     1  ZINC000944933040   -0.2000
     28 H28       -10.4281   -1.7905   55.2513 H       1  ZINC000944933040    0.1300
     29 C29        -7.1728    3.7165   51.6936 C.3     1  ZINC000944933040    0.1100
     30 C30        -5.3822    1.9080   51.4018 C.3     1  ZINC000944933040   -0.1100
     31 C31        -4.7520    2.4629   50.1134 C.3     1  ZINC000944933040    0.1100
     32 H32        -1.7691    0.2055   46.7286 H       1  ZINC000944933040    0.1400
     33 H33         0.5764   -0.7060   47.0499 H       1  ZINC000944933040    0.1100
     34 H34         0.6861    0.1510   48.6793 H       1  ZINC000944933040    0.1000
     35 H35        -1.3133   -1.1710   49.5093 H       1  ZINC000944933040    0.1000
     36 H36        -1.4230   -2.0281   47.8800 H       1  ZINC000944933040    0.1100
     37 H37        -3.3109    5.2325   51.5540 H       1  ZINC000944933040    0.0900
     38 H38        -4.9114    5.2163   50.7696 H       1  ZINC000944933040    0.0800
     39 H39        -4.0393    3.5937   53.2050 H       1  ZINC000944933040    0.0800
     40 H40        -5.2433    4.9057   53.1657 H       1  ZINC000944933040    0.0900
     41 H41        -6.5450    1.6110   53.7759 H       1  ZINC000944933040    0.0800
     42 H42        -6.7466    3.3496   54.2696 H       1  ZINC000944933040    0.0900
     43 H43        -8.6071   -0.2227   52.2466 H       1  ZINC000944933040    0.0800
     44 H44        -8.5047   -0.6416   53.9885 H       1  ZINC000944933040    0.0900
     45 H45       -12.9006   -1.1213   55.8105 H       1  ZINC000944933040    0.1000
     46 H46       -13.1791   -0.7199   54.0331 H       1  ZINC000944933040    0.1000
     47 H47        -7.3056    4.7563   51.9924 H       1  ZINC000944933040    0.0900
     48 H48        -7.3183    3.5575   50.6252 H       1  ZINC000944933040    0.0800
     49 H49        -4.6343    1.3499   51.9650 H       1  ZINC000944933040    0.0800
     50 H50        -6.2128    1.2504   51.1457 H       1  ZINC000944933040    0.0800
     51 H51        -5.5272    2.9081   49.4898 H       1  ZINC000944933040    0.0700
     52 H52        -4.2613    1.6556   49.5696 H       1  ZINC000944933040    0.1000
@<TRIPOS>BOND
     1     1     2    2
     2     2     3    1
     3     2     8   am
     4     3     4    3
     5     4     5    1
     6     5     7    1
     7     5     6    1
     8     5    32    1
     9     6     7    1
    10     6    33    1
    11     6    34    1
    12     7    35    1
    13     7    36    1
    14     8    31    1
    15     8     9    1
    16     9    10    1
    17     9    37    1
    18     9    38    1
    19    10    11    1
    20    10    39    1
    21    10    40    1
    22    11    29    1
    23    11    12    1
    24    11    30    1
    25    12    13    1
    26    12    41    1
    27    12    42    1
    28    13    14   am
    29    13    29    1
    30    14    15    2
    31    14    16    1
    32    16    17    1
    33    16    22    1
    34    16    18    1
    35    18    19    1
    36    18    43    1
    37    18    44    1
    38    19    20    1
    39    19    27    1
    40    19    21    1
    41    21    22    1
    42    22    23    1
    43    22    24    1
    44    24    25    1
    45    24    27    1
    46    24    26    1
    47    26    27    1
    48    26    45    1
    49    26    46    1
    50    27    28    1
    51    29    47    1
    52    29    48    1
    53    30    31    1
    54    30    49    1
    55    30    50    1
    56    31    51    1
    57    31    52    1
@<TRIPOS>SUBSTRUCTURE
     1 ZINC000944933040        1 TEMP              0 ****  ****    0 ROOT


##########                                Name:    ZINC000265724350
##########                DOCK_Rotatable_Bonds:                   8
##########                         Heavy_Atoms:                  23
##########                    Molecular_Weight:              345.42
##########                DOCK_Rotatable_Bonds:                   8
##########                       Formal_Charge:          -0.0300002
##########                     HBond_Acceptors:                   9
##########                        HBond_Donors:                   2
##########                         Heavy_Atoms:                  23
##########                          Grid_Score:          -30.580252
##########                     Grid_vdw_energy:          -30.475323
##########                      Grid_es_energy:           -0.104929
##########           Internal_energy_repulsive:            8.292204

@<TRIPOS>MOLECULE
ZINC000265724350
 46 47 1 0 0
SMALL
USER_CHARGES


@<TRIPOS>ATOM
      1 C1         -6.3423    0.7141   50.8506 C.3     1  ZINC000265724350    0.0800
      2 N2         -7.0903    1.9675   50.7249 N.am    1  ZINC000265724350   -1.1100
      3 S3         -7.2872    2.9499   52.0434 S.o2    1  ZINC000265724350    2.7200
      4 O4         -7.9108    4.1359   51.5705 O.2     1  ZINC000265724350   -0.9300
      5 O5         -7.8396    2.1377   53.0702 O.2     1  ZINC000265724350   -0.9300
      6 C6         -5.6787    3.4175   52.5902 C.2     1  ZINC000265724350   -0.5600
      7 C7         -5.3766    3.9196   53.8078 C.2     1  ZINC000265724350   -0.0900
      8 C8         -3.9926    4.1534   53.8263 C.2     1  ZINC000265724350   -0.1400
      9 C9         -3.5146    3.7775   52.6038 C.2     1  ZINC000265724350   -0.0200
     10 C10        -2.1160    3.8447   52.1674 C.2     1  ZINC000265724350    0.6000
     11 O11        -1.2360    4.0694   52.9775 O.2     1  ZINC000265724350   -0.5000
     12 N12        -1.8053    3.6576   50.8694 N.am    1  ZINC000265724350   -0.7100
     13 C13        -0.4081    3.7231   50.4339 C.3     1  ZINC000265724350    0.1200
     14 C14        -0.2054    2.8006   49.2302 C.3     1  ZINC000265724350   -0.1100
     15 H15        -0.5597    3.2981   48.3274 H       1  ZINC000265724350    0.0800
     16 C16         1.2822    2.4746   49.0824 C.3     1  ZINC000265724350   -0.1400
     17 C17        -0.9927    1.5059   49.4416 C.3     1  ZINC000265724350    0.0600
     18 N18        -0.7486    0.5950   48.3152 N.3     1  ZINC000265724350   -0.5300
     19 C19        -1.6901    0.8521   47.2159 C.3     1  ZINC000265724350    0.0100
     20 C20        -1.3628   -0.0759   46.0431 C.3     1  ZINC000265724350    0.0600
     21 O21        -1.4090   -1.4339   46.4891 O.3     1  ZINC000265724350   -0.3900
     22 C22        -0.5040   -1.7198   47.5589 C.3     1  ZINC000265724350    0.0600
     23 C23        -0.8226   -0.8084   48.7470 C.3     1  ZINC000265724350    0.0200
     24 O24        -4.5534    3.3284   51.8695 O.3     1  ZINC000265724350   -0.1100
     25 H25        -6.3186    0.2068   49.8861 H       1  ZINC000265724350    0.0900
     26 H26        -5.3235    0.9297   51.1728 H       1  ZINC000265724350    0.0600
     27 H27        -6.8281    0.0732   51.5864 H       1  ZINC000265724350    0.0700
     28 H28        -7.4703    2.2218   49.8695 H       1  ZINC000265724350    0.4200
     29 H29        -6.0695    4.1060   54.6149 H       1  ZINC000265724350    0.1800
     30 H30        -3.4174    4.5533   54.6483 H       1  ZINC000265724350    0.1700
     31 H31        -2.5068    3.4797   50.2236 H       1  ZINC000265724350    0.4100
     32 H32        -0.1627    4.7470   50.1524 H       1  ZINC000265724350    0.0800
     33 H33         0.2418    3.4048   51.2491 H       1  ZINC000265724350    0.0700
     34 H34         1.8432    3.3969   48.9318 H       1  ZINC000265724350    0.0500
     35 H35         1.6365    1.9770   49.9852 H       1  ZINC000265724350    0.0600
     36 H36         1.4266    1.8174   48.2249 H       1  ZINC000265724350    0.0700
     37 H37        -0.6705    1.0319   50.3686 H       1  ZINC000265724350    0.0800
     38 H38        -2.0571    1.7335   49.5006 H       1  ZINC000265724350    0.0400
     39 H39        -2.7080    0.6628   47.5567 H       1  ZINC000265724350    0.0400
     40 H40        -1.6003    1.8899   46.8949 H       1  ZINC000265724350    0.0900
     41 H41        -2.0934    0.0711   45.2477 H       1  ZINC000265724350    0.1000
     42 H42        -0.3647    0.1502   45.6677 H       1  ZINC000265724350    0.0600
     43 H43        -0.6135   -2.7616   47.8598 H       1  ZINC000265724350    0.1000
     44 H44         0.5191   -1.5416   47.2276 H       1  ZINC000265724350    0.0600
     45 H45        -0.0995   -0.9827   49.5437 H       1  ZINC000265724350    0.0900
     46 H46        -1.8267   -1.0243   49.1123 H       1  ZINC000265724350    0.0400
@<TRIPOS>BOND
     1     1     2    1
     2     1    25    1
     3     1    26    1
     4     1    27    1
     5     2     3   am
     6     2    28    1
     7     3     4    2
     8     3     5    2
     9     3     6    1
    10     6    24    1
    11     6     7    2
    12     7     8    1
    13     7    29    1
    14     8     9    2
    15     8    30    1
    16     9    10    1
    17     9    24    1
    18    10    11    2
    19    10    12   am
    20    12    13    1
    21    12    31    1
    22    13    14    1
    23    13    32    1
    24    13    33    1
    25    14    15    1
    26    14    16    1
    27    14    17    1
    28    16    34    1
    29    16    35    1
    30    16    36    1
    31    17    18    1
    32    17    37    1
    33    17    38    1
    34    18    23    1
    35    18    19    1
    36    19    20    1
    37    19    39    1
    38    19    40    1
    39    20    21    1
    40    20    41    1
    41    20    42    1
    42    21    22    1
    43    22    23    1
    44    22    43    1
    45    22    44    1
    46    23    45    1
    47    23    46    1
@<TRIPOS>SUBSTRUCTURE
     1 ZINC000265724350        1 TEMP              0 ****  ****    0 ROOT


##########                                Name:    ZINC000469391664
##########                DOCK_Rotatable_Bonds:                   6
##########                         Heavy_Atoms:                  29
##########                    Molecular_Weight:             408.524
##########                DOCK_Rotatable_Bonds:                   6
##########                       Formal_Charge:         -0.00999999
##########                     HBond_Acceptors:                   7
##########                        HBond_Donors:                   0
##########                         Heavy_Atoms:                  29
##########                          Grid_Score:          -30.579567
##########                     Grid_vdw_energy:          -29.998407
##########                      Grid_es_energy:           -0.581160
##########           Internal_energy_repulsive:           48.057068

@<TRIPOS>MOLECULE
ZINC000469391664
 53 56 1 0 0
SMALL
USER_CHARGES


@<TRIPOS>ATOM
      1 C1         -3.1992    5.1684   52.1947 C.3     1  ZINC000469391664   -0.1500
      2 C2         -2.7885    3.9040   51.4374 C.3     1  ZINC000469391664   -0.1000
      3 H3         -2.7071    3.0721   52.1369 H       1  ZINC000469391664    0.0800
      4 C4         -1.4363    4.1332   50.7582 C.3     1  ZINC000469391664   -0.1300
      5 C5         -1.0120    2.8541   50.0298 C.3     1  ZINC000469391664    0.1100
      6 N6         -2.0877    2.4531   49.1128 N.am    1  ZINC000469391664   -0.6100
      7 C7         -1.8319    2.2360   47.8075 C.2     1  ZINC000469391664    0.5600
      8 O8         -2.7308    1.9046   47.0586 O.2     1  ZINC000469391664   -0.5000
      9 C9         -0.4615    2.4007   47.2872 C.ar    1  ZINC000469391664   -0.1100
     10 C10        -0.0620    3.6189   46.7334 C.ar    1  ZINC000469391664   -0.0900
     11 C11         1.2201    3.7666   46.2494 C.ar    1  ZINC000469391664   -0.1000
     12 C12         2.1162    2.7118   46.3086 C.ar    1  ZINC000469391664   -0.0900
     13 C13         1.7358    1.5014   46.8526 C.ar    1  ZINC000469391664   -0.1000
     14 C14         0.4504    1.3360   47.3509 C.ar    1  ZINC000469391664    0.1500
     15 N15         0.0647    0.1167   47.8998 N.am    1  ZINC000469391664   -0.5800
     16 C16         0.3336   -0.1691   49.3113 C.3     1  ZINC000469391664    0.0900
     17 C17        -0.5563   -0.8014   47.1328 C.2     1  ZINC000469391664    0.6100
     18 O18        -0.8937   -1.8676   47.6129 O.2     1  ZINC000469391664   -0.5200
     19 C19        -0.8252   -0.5155   45.7211 C.2     1  ZINC000469391664   -0.2600
     20 C20        -1.4989   -1.3363   44.8603 C.2     1  ZINC000469391664   -0.0500
     21 C21        -1.6084   -0.8202   43.5909 C.2     1  ZINC000469391664   -0.1500
     22 C22        -1.0449    0.3810   43.4158 C.2     1  ZINC000469391664   -0.2600
     23 S23        -0.3396    0.9413   44.8647 S.3     1  ZINC000469391664    0.2300
     24 C24        -3.4473    2.2928   49.6459 C.3     1  ZINC000469391664    0.1000
     25 C25        -3.8442    3.5784   50.3784 C.3     1  ZINC000469391664    0.1300
     26 H26        -3.9085    4.3992   49.6639 H       1  ZINC000469391664    0.1000
     27 N27        -5.1449    3.3907   51.0259 N.pl3   1  ZINC000469391664   -0.4500
     28 C28        -5.4160    2.5575   52.0775 C.2     1  ZINC000469391664   -0.0500
     29 C29        -6.7266    2.6942   52.3551 C.2     1  ZINC000469391664   -0.0300
     30 N30        -7.2418    3.5864   51.4964 N.2     1  ZINC000469391664   -0.4900
     31 C31        -6.2991    4.0118   50.7005 C.2     1  ZINC000469391664    0.1800
     32 H32        -4.1620    5.0052   52.6790 H       1  ZINC000469391664    0.0600
     33 H33        -2.4476    5.4002   52.9494 H       1  ZINC000469391664    0.0600
     34 H34        -3.2806    6.0005   51.4954 H       1  ZINC000469391664    0.0600
     35 H35        -1.5234    4.9488   50.0404 H       1  ZINC000469391664    0.0700
     36 H36        -0.6899    4.3881   51.5105 H       1  ZINC000469391664    0.0900
     37 H37        -0.0998    3.0416   49.4633 H       1  ZINC000469391664    0.1000
     38 H38        -0.8367    2.0608   50.7565 H       1  ZINC000469391664    0.0800
     39 H39        -0.7568    4.4441   46.6842 H       1  ZINC000469391664    0.1400
     40 H40         1.5275    4.7093   45.8215 H       1  ZINC000469391664    0.1400
     41 H41         3.1186    2.8371   45.9264 H       1  ZINC000469391664    0.1400
     42 H42         2.4401    0.6838   46.8948 H       1  ZINC000469391664    0.1400
     43 H43        -0.5451    0.0801   49.9062 H       1  ZINC000469391664    0.0600
     44 H44         0.5646   -1.2277   49.4301 H       1  ZINC000469391664    0.0900
     45 H45         1.1813    0.4278   49.6476 H       1  ZINC000469391664    0.0700
     46 H46        -1.9044   -2.2949   45.1486 H       1  ZINC000469391664    0.1500
     47 H47        -2.1121   -1.3459   42.7931 H       1  ZINC000469391664    0.1400
     48 H48        -1.0409    0.9249   42.4827 H       1  ZINC000469391664    0.1600
     49 H49        -4.1421    2.1101   48.8262 H       1  ZINC000469391664    0.1000
     50 H50        -3.4706    1.4538   50.3413 H       1  ZINC000469391664    0.0800
     51 H51        -4.7138    1.9138   52.5864 H       1  ZINC000469391664    0.1700
     52 H52        -7.2680    2.1760   53.1328 H       1  ZINC000469391664    0.1700
     53 H53        -6.4229    4.7355   49.9084 H       1  ZINC000469391664    0.2000
@<TRIPOS>BOND
     1     1     2    1
     2     1    32    1
     3     1    33    1
     4     1    34    1
     5     2     3    1
     6     2    25    1
     7     2     4    1
     8     4     5    1
     9     4    35    1
    10     4    36    1
    11     5     6    1
    12     5    37    1
    13     5    38    1
    14     6     7   am
    15     6    24    1
    16     7     8    2
    17     7     9    1
    18     9    14   ar
    19     9    10   ar
    20    10    11   ar
    21    10    39    1
    22    11    12   ar
    23    11    40    1
    24    12    13   ar
    25    12    41    1
    26    13    14   ar
    27    13    42    1
    28    14    15    1
    29    15    16    1
    30    15    17   am
    31    16    43    1
    32    16    44    1
    33    16    45    1
    34    17    18    2
    35    17    19    1
    36    19    23    1
    37    19    20    2
    38    20    21    1
    39    20    46    1
    40    21    22    2
    41    21    47    1
    42    22    23    1
    43    22    48    1
    44    24    25    1
    45    24    49    1
    46    24    50    1
    47    25    26    1
    48    25    27    1
    49    27    31    1
    50    27    28    1
    51    28    29    2
    52    28    51    1
    53    29    30    1
    54    29    52    1
    55    30    31    2
    56    31    53    1
@<TRIPOS>SUBSTRUCTURE
     1 ZINC000469391664        1 TEMP              0 ****  ****    0 ROOT


##########                                Name:    ZINC001016082614
##########                DOCK_Rotatable_Bonds:                   6
##########                         Heavy_Atoms:                  25
##########                    Molecular_Weight:             348.402
##########                DOCK_Rotatable_Bonds:                   6
##########                       Formal_Charge:         -0.00999998
##########                     HBond_Acceptors:                   8
##########                        HBond_Donors:                   1
##########                         Heavy_Atoms:                  25
##########                          Grid_Score:          -30.569044
##########                     Grid_vdw_energy:          -30.150309
##########                      Grid_es_energy:           -0.418735
##########           Internal_energy_repulsive:           53.492065

@<TRIPOS>MOLECULE
ZINC001016082614
 49 51 1 0 0
SMALL
USER_CHARGES


@<TRIPOS>ATOM
      1 C1         -1.7971    4.0306   52.1284 C.3     1  ZINC001016082614   -0.1700
      2 C2         -1.7170    4.4551   50.6606 C.3     1  ZINC001016082614    0.1000
      3 N3         -2.0721    3.3208   49.8042 N.am    1  ZINC001016082614   -0.6100
      4 C4         -3.3669    3.0539   49.5416 C.2     1  ZINC001016082614    0.6100
      5 O5         -3.6619    2.1119   48.8303 O.2     1  ZINC001016082614   -0.5100
      6 C6         -4.4208    3.8996   50.1134 C.2     1  ZINC001016082614   -0.1100
      7 C7         -5.7652    3.7515   49.9424 C.2     1  ZINC001016082614    0.0600
      8 N8         -6.3669    4.7269   50.6310 N.2     1  ZINC001016082614   -0.4900
      9 C9         -5.4563    5.4608   51.2124 C.2     1  ZINC001016082614    0.2000
     10 O10        -4.2468    4.9741   50.9177 O.3     1  ZINC001016082614   -0.1900
     11 C11        -1.0199    2.4764   49.2332 C.3     1  ZINC001016082614    0.1600
     12 H12        -0.0632    2.7856   49.6542 H       1  ZINC001016082614    0.0800
     13 C13        -1.2842    1.0304   49.6418 C.3     1  ZINC001016082614   -0.1300
     14 C14         0.0181    0.2685   49.6553 C.3     1  ZINC001016082614   -0.1300
     15 C15         0.2575   -0.3943   48.2866 C.3     1  ZINC001016082614    0.1000
     16 N16        -0.1230    0.4888   47.1666 N.am    1  ZINC001016082614   -0.6000
     17 C17        -0.7862   -0.0431   46.1209 C.2     1  ZINC001016082614    0.5000
     18 O18        -1.0585   -1.2249   46.1132 O.2     1  ZINC001016082614   -0.5200
     19 C19        -1.1895    0.8306   44.9611 C.3     1  ZINC001016082614    0.1100
     20 H20        -1.6146    1.7663   45.3245 H       1  ZINC001016082614    0.1100
     21 C21        -2.2086    0.0927   44.0650 C.3     1  ZINC001016082614   -0.1200
     22 C22        -1.2870   -0.5502   43.0029 C.3     1  ZINC001016082614   -0.1600
     23 C23        -0.0580    0.3318   42.9953 C.2     1  ZINC001016082614    0.5300
     24 O24         0.7813    0.3463   42.1198 O.2     1  ZINC001016082614   -0.5300
     25 N25        -0.0312    1.0994   44.1009 N.am    1  ZINC001016082614   -0.7100
     26 C26         0.1860    1.9010   47.1455 C.3     1  ZINC001016082614    0.1300
     27 C27        -0.9830    2.6952   47.7792 C.3     1  ZINC001016082614   -0.1600
     28 H28        -1.5329    4.8746   52.7656 H       1  ZINC001016082614    0.0700
     29 H29        -2.8120    3.7058   52.3579 H       1  ZINC001016082614    0.0500
     30 H30        -1.1034    3.2091   52.3074 H       1  ZINC001016082614    0.0600
     31 H31        -2.4108    5.2766   50.4816 H       1  ZINC001016082614    0.0900
     32 H32        -0.7023    4.7799   50.4312 H       1  ZINC001016082614    0.0900
     33 H33        -6.2546    2.9868   49.3574 H       1  ZINC001016082614    0.2000
     34 H34        -5.6499    6.3213   51.8357 H       1  ZINC001016082614    0.2600
     35 H35        -1.7283    1.0089   50.6369 H       1  ZINC001016082614    0.0700
     36 H36        -1.9674    0.5699   48.9281 H       1  ZINC001016082614    0.0800
     37 H37         0.8364    0.9552   49.8723 H       1  ZINC001016082614    0.0700
     38 H38        -0.0207   -0.5000   50.4272 H       1  ZINC001016082614    0.0800
     39 H39         1.3140   -0.6465   48.1952 H       1  ZINC001016082614    0.0700
     40 H40        -0.3298   -1.3109   48.2297 H       1  ZINC001016082614    0.0800
     41 H41        -2.7443   -0.6701   44.6299 H       1  ZINC001016082614    0.1000
     42 H42        -2.9036    0.7950   43.6046 H       1  ZINC001016082614    0.1000
     43 H43        -1.0243   -1.5680   43.2915 H       1  ZINC001016082614    0.1100
     44 H44        -1.7683   -0.5422   42.0250 H       1  ZINC001016082614    0.1100
     45 H45         0.6638    1.7455   44.3020 H       1  ZINC001016082614    0.4200
     46 H46         1.0992    2.0812   47.7128 H       1  ZINC001016082614    0.0800
     47 H47         0.3295    2.2257   46.1150 H       1  ZINC001016082614    0.0900
     48 H48        -1.9237    2.3663   47.3376 H       1  ZINC001016082614    0.0900
     49 H49        -0.8464    3.7582   47.5807 H       1  ZINC001016082614    0.0700
@<TRIPOS>BOND
     1     1     2    1
     2     1    28    1
     3     1    29    1
     4     1    30    1
     5     2     3    1
     6     2    31    1
     7     2    32    1
     8     3     4   am
     9     3    11    1
    10     4     5    2
    11     4     6    1
    12     6    10    1
    13     6     7    2
    14     7     8    1
    15     7    33    1
    16     8     9    2
    17     9    10    1
    18     9    34    1
    19    11    12    1
    20    11    27    1
    21    11    13    1
    22    13    14    1
    23    13    35    1
    24    13    36    1
    25    14    15    1
    26    14    37    1
    27    14    38    1
    28    15    16    1
    29    15    39    1
    30    15    40    1
    31    16    17   am
    32    16    26    1
    33    17    18    2
    34    17    19    1
    35    19    20    1
    36    19    25    1
    37    19    21    1
    38    21    22    1
    39    21    41    1
    40    21    42    1
    41    22    23    1
    42    22    43    1
    43    22    44    1
    44    23    24    2
    45    23    25   am
    46    25    45    1
    47    26    27    1
    48    26    46    1
    49    26    47    1
    50    27    48    1
    51    27    49    1
@<TRIPOS>SUBSTRUCTURE
     1 ZINC001016082614        1 TEMP              0 ****  ****    0 ROOT


##########                                Name:    ZINC000156038173
##########                DOCK_Rotatable_Bonds:                  10
##########                         Heavy_Atoms:                  27
##########                    Molecular_Weight:             396.357
##########                DOCK_Rotatable_Bonds:                  10
##########                       Formal_Charge:         -0.00999981
##########                     HBond_Acceptors:                  10
##########                        HBond_Donors:                   1
##########                         Heavy_Atoms:                  27
##########                          Grid_Score:          -30.553089
##########                     Grid_vdw_energy:          -30.741291
##########                      Grid_es_energy:            0.188203
##########           Internal_energy_repulsive:           20.337540

@<TRIPOS>MOLECULE
ZINC000156038173
 48 48 1 0 0
SMALL
USER_CHARGES


@<TRIPOS>ATOM
      1 C1         -2.4770    4.6860   51.2408 C.3     1  ZINC000156038173    0.0700
      2 N2         -2.5968    3.5718   50.2973 N.am    1  ZINC000156038173   -0.6300
      3 C3         -3.9213    3.0962   49.8898 C.3     1  ZINC000156038173    0.1500
      4 C4         -4.3269    1.9071   50.7630 C.3     1  ZINC000156038173   -0.1400
      5 C5         -5.7894    1.6078   50.5562 C.2     1  ZINC000156038173    0.4700
      6 O6         -6.1343    0.5142   50.1757 O.2     1  ZINC000156038173   -0.5000
      7 O7         -6.7088    2.5563   50.7947 O.3     1  ZINC000156038173   -0.3500
      8 C8         -7.1428    2.7226   52.1703 C.3     1  ZINC000156038173    0.1200
      9 C9         -6.3295    3.8378   52.8303 C.3     1  ZINC000156038173   -0.1800
     10 C10        -8.6276    3.0908   52.1956 C.3     1  ZINC000156038173   -0.1400
     11 C11        -6.9286    1.4145   52.9343 C.3     1  ZINC000156038173   -0.1800
     12 C12        -1.4887    2.9843   49.8040 C.2     1  ZINC000156038173    0.7100
     13 O13        -0.3895    3.3779   50.1432 O.2     1  ZINC000156038173   -0.5700
     14 N14        -1.5990    1.9602   48.9348 N.am    1  ZINC000156038173   -0.7400
     15 C15        -0.3946    1.3204   48.3999 C.3     1  ZINC000156038173    0.1700
     16 H16         0.4756    1.9360   48.6277 H       1  ZINC000156038173    0.1500
     17 C17        -0.5265    1.1704   46.9062 C.ar    1  ZINC000156038173   -0.1300
     18 C18        -1.5114    0.3574   46.3776 C.ar    1  ZINC000156038173   -0.0700
     19 C19        -1.6337    0.2187   45.0075 C.ar    1  ZINC000156038173   -0.1000
     20 C20        -0.7715    0.8927   44.1634 C.ar    1  ZINC000156038173   -0.1100
     21 C21         0.2158    1.7076   44.6896 C.ar    1  ZINC000156038173    0.0700
     22 F22         1.0591    2.3668   43.8652 F       1  ZINC000156038173   -0.1200
     23 C23         0.3349    1.8512   46.0635 C.ar    1  ZINC000156038173    0.1000
     24 F24         1.2979    2.6460   46.5794 F       1  ZINC000156038173   -0.1200
     25 C25        -0.2240   -0.0597   49.0379 C.3     1  ZINC000156038173    0.4500
     26 F26        -1.4804   -0.5802   49.3662 F       1  ZINC000156038173   -0.1700
     27 F27         0.4137   -0.9160   48.1338 F       1  ZINC000156038173   -0.1600
     28 F28         0.5506    0.0550   50.1973 F       1  ZINC000156038173   -0.1700
     29 H29        -2.4501    4.2985   52.2592 H       1  ZINC000156038173    0.0600
     30 H30        -1.5589    5.2372   51.0375 H       1  ZINC000156038173    0.0700
     31 H31        -3.3328    5.3515   51.1278 H       1  ZINC000156038173    0.0800
     32 H32        -4.6483    3.8994   50.0093 H       1  ZINC000156038173    0.1000
     33 H33        -3.8905    2.7862   48.8453 H       1  ZINC000156038173    0.0900
     34 H34        -3.7349    1.0346   50.4866 H       1  ZINC000156038173    0.1100
     35 H35        -4.1502    2.1489   51.8111 H       1  ZINC000156038173    0.1100
     36 H36        -6.4820    4.7697   52.2860 H       1  ZINC000156038173    0.0600
     37 H37        -6.6553    3.9627   53.8630 H       1  ZINC000156038173    0.0700
     38 H38        -5.2717    3.5755   52.8123 H       1  ZINC000156038173    0.0800
     39 H39        -9.2071    2.2963   51.7253 H       1  ZINC000156038173    0.0700
     40 H40        -8.9534    3.2157   53.2282 H       1  ZINC000156038173    0.0800
     41 H41        -8.7802    4.0228   51.6512 H       1  ZINC000156038173    0.0700
     42 H42        -5.8709    1.1521   52.9163 H       1  ZINC000156038173    0.0800
     43 H43        -7.2545    1.5393   53.9670 H       1  ZINC000156038173    0.0700
     44 H44        -7.5081    0.6200   52.4640 H       1  ZINC000156038173    0.0600
     45 H45        -2.4760    1.6469   48.6632 H       1  ZINC000156038173    0.4100
     46 H46        -2.1859   -0.1704   47.0356 H       1  ZINC000156038173    0.1400
     47 H47        -2.4037   -0.4173   44.5963 H       1  ZINC000156038173    0.1500
     48 H48        -0.8679    0.7832   43.0933 H       1  ZINC000156038173    0.1500
@<TRIPOS>BOND
     1     1     2    1
     2     1    29    1
     3     1    30    1
     4     1    31    1
     5     2     3    1
     6     2    12   am
     7     3     4    1
     8     3    32    1
     9     3    33    1
    10     4     5    1
    11     4    34    1
    12     4    35    1
    13     5     6    2
    14     5     7    1
    15     7     8    1
    16     8     9    1
    17     8    10    1
    18     8    11    1
    19     9    36    1
    20     9    37    1
    21     9    38    1
    22    10    39    1
    23    10    40    1
    24    10    41    1
    25    11    42    1
    26    11    43    1
    27    11    44    1
    28    12    13    2
    29    12    14   am
    30    14    15    1
    31    14    45    1
    32    15    16    1
    33    15    17    1
    34    15    25    1
    35    17    23   ar
    36    17    18   ar
    37    18    19   ar
    38    18    46    1
    39    19    20   ar
    40    19    47    1
    41    20    21   ar
    42    20    48    1
    43    21    22    1
    44    21    23   ar
    45    23    24    1
    46    25    26    1
    47    25    27    1
    48    25    28    1
@<TRIPOS>SUBSTRUCTURE
     1 ZINC000156038173        1 TEMP              0 ****  ****    0 ROOT


##########                                Name:    ZINC000822206030
##########                DOCK_Rotatable_Bonds:                   7
##########                         Heavy_Atoms:                  29
##########                    Molecular_Weight:             391.448
##########                DOCK_Rotatable_Bonds:                   7
##########                       Formal_Charge:         -0.00999995
##########                     HBond_Acceptors:                   7
##########                        HBond_Donors:                   1
##########                         Heavy_Atoms:                  29
##########                          Grid_Score:          -30.539034
##########                     Grid_vdw_energy:          -30.746330
##########                      Grid_es_energy:            0.207297
##########           Internal_energy_repulsive:           22.077860

@<TRIPOS>MOLECULE
ZINC000822206030
 51 55 1 0 0
SMALL
USER_CHARGES


@<TRIPOS>ATOM
      1 C1         -0.4942   -1.5155   47.7742 C.3     1  ZINC000822206030   -0.1300
      2 C2         -0.9232   -0.3745   46.8879 C.ar    1  ZINC000822206030   -0.0400
      3 C3         -1.5116   -0.6327   45.6656 C.ar    1  ZINC000822206030   -0.1500
      4 C4         -1.9056    0.4154   44.8505 C.ar    1  ZINC000822206030    0.1100
      5 F5         -2.4808    0.1609   43.6549 F       1  ZINC000822206030   -0.1400
      6 C6         -1.7113    1.7239   45.2596 C.ar    1  ZINC000822206030   -0.1500
      7 C7         -1.1230    1.9863   46.4815 C.ar    1  ZINC000822206030   -0.0800
      8 C8         -0.7321    0.9370   47.3023 C.ar    1  ZINC000822206030    0.1100
      9 N9         -0.1360    1.2009   48.5416 N.am    1  ZINC000822206030   -0.5600
     10 C10        -0.8445    0.8701   49.7805 C.3     1  ZINC000822206030    0.1500
     11 C11        -1.8279    1.9650   50.1045 C.ar    1  ZINC000822206030   -0.0900
     12 C12        -1.3699    3.2321   50.4176 C.ar    1  ZINC000822206030   -0.1000
     13 C13        -2.2663    4.2387   50.7146 C.ar    1  ZINC000822206030   -0.0800
     14 C14        -3.6343    3.9769   50.6987 C.ar    1  ZINC000822206030   -0.0100
     15 C15        -4.6032    5.0558   51.0170 C.2     1  ZINC000822206030    0.2200
     16 N16        -5.9167    4.9509   51.0462 N.2     1  ZINC000822206030   -0.2900
     17 N17        -6.3975    6.1040   51.3626 N.pl3   1  ZINC000822206030   -0.2300
     18 N18        -5.4303    6.9359   51.5346 N.2     1  ZINC000822206030   -0.0500
     19 N19        -4.3120    6.3248   51.3360 N.2     1  ZINC000822206030   -0.2700
     20 C20        -4.0902    2.6990   50.3828 C.ar    1  ZINC000822206030   -0.0800
     21 C21        -3.1854    1.7009   50.0822 C.ar    1  ZINC000822206030   -0.0900
     22 C22         1.0895    1.7593   48.5947 C.2     1  ZINC000822206030    0.5500
     23 O23         1.6053    1.9892   49.6681 O.2     1  ZINC000822206030   -0.5000
     24 C24         1.8191    2.0979   47.3203 C.3     1  ZINC000822206030   -0.1900
     25 H25         1.5643    3.0591   46.8740 H       1  ZINC000822206030    0.1200
     26 C26         2.1562    0.9457   46.3717 C.3     1  ZINC000822206030   -0.1400
     27 C27         3.2654    1.6174   47.1852 C.3     1  ZINC000822206030   -0.0900
     28 H28         3.9621    2.2623   46.6497 H       1  ZINC000822206030    0.1100
     29 C29         3.8607    0.8293   48.3537 C.3     1  ZINC000822206030   -0.1100
     30 C30         5.3064    0.3477   48.2174 C.3     1  ZINC000822206030   -0.2000
     31 C31         4.9702    1.5002   49.1659 C.3     1  ZINC000822206030   -0.1200
     32 H32        -1.3181   -1.7953   48.4306 H       1  ZINC000822206030    0.0900
     33 H33        -0.2150   -2.3696   47.1573 H       1  ZINC000822206030    0.0700
     34 H34         0.3608   -1.2066   48.3757 H       1  ZINC000822206030    0.0700
     35 H35        -1.6645   -1.6526   45.3449 H       1  ZINC000822206030    0.1400
     36 H36        -2.0195    2.5398   44.6227 H       1  ZINC000822206030    0.1400
     37 H37        -0.9712    3.0070   46.8001 H       1  ZINC000822206030    0.1400
     38 H38        -1.3782   -0.0718   49.6534 H       1  ZINC000822206030    0.1000
     39 H39        -0.1265    0.7738   50.5950 H       1  ZINC000822206030    0.0900
     40 H40        -0.3090    3.4340   50.4299 H       1  ZINC000822206030    0.1300
     41 H41        -1.9077    5.2276   50.9592 H       1  ZINC000822206030    0.1400
     42 H42        -7.3403    6.3124   51.4560 H       1  ZINC000822206030    0.4800
     43 H43        -5.1498    2.4905   50.3694 H       1  ZINC000822206030    0.1300
     44 H44        -3.5376    0.7098   49.8370 H       1  ZINC000822206030    0.1400
     45 H45         1.8503   -0.0572   46.6695 H       1  ZINC000822206030    0.1000
     46 H46         2.1236    1.1491   45.3013 H       1  ZINC000822206030    0.1000
     47 H47         3.1637    0.1852   48.8898 H       1  ZINC000822206030    0.1000
     48 H48         5.5609   -0.6136   48.6638 H       1  ZINC000822206030    0.0900
     49 H49         5.8336    0.5922   47.2953 H       1  ZINC000822206030    0.0900
     50 H50         5.2762    2.5029   48.8677 H       1  ZINC000822206030    0.0800
     51 H51         5.0035    1.2970   50.2362 H       1  ZINC000822206030    0.0900
@<TRIPOS>BOND
     1     1     2    1
     2     1    32    1
     3     1    33    1
     4     1    34    1
     5     2     8   ar
     6     2     3   ar
     7     3     4   ar
     8     3    35    1
     9     4     5    1
    10     4     6   ar
    11     6     7   ar
    12     6    36    1
    13     7     8   ar
    14     7    37    1
    15     8     9    1
    16     9    10    1
    17     9    22   am
    18    10    11    1
    19    10    38    1
    20    10    39    1
    21    11    21   ar
    22    11    12   ar
    23    12    13   ar
    24    12    40    1
    25    13    14   ar
    26    13    41    1
    27    14    15    1
    28    14    20   ar
    29    15    19    1
    30    15    16    2
    31    16    17    1
    32    17    18    1
    33    17    42    1
    34    18    19    2
    35    20    21   ar
    36    20    43    1
    37    21    44    1
    38    22    23    2
    39    22    24    1
    40    24    25    1
    41    24    27    1
    42    24    26    1
    43    26    27    1
    44    26    45    1
    45    26    46    1
    46    27    28    1
    47    27    29    1
    48    29    31    1
    49    29    30    1
    50    29    47    1
    51    30    31    1
    52    30    48    1
    53    30    49    1
    54    31    50    1
    55    31    51    1
@<TRIPOS>SUBSTRUCTURE
     1 ZINC000822206030        1 TEMP              0 ****  ****    0 ROOT


##########                                Name:    ZINC001342629575
##########                DOCK_Rotatable_Bonds:                   9
##########                         Heavy_Atoms:                  29
##########                    Molecular_Weight:             396.533
##########                DOCK_Rotatable_Bonds:                   9
##########                       Formal_Charge:         -0.00999976
##########                     HBond_Acceptors:                   6
##########                        HBond_Donors:                   0
##########                         Heavy_Atoms:                  29
##########                          Grid_Score:          -30.508163
##########                     Grid_vdw_energy:          -29.049088
##########                      Grid_es_energy:           -1.459076
##########           Internal_energy_repulsive:           25.432119

@<TRIPOS>MOLECULE
ZINC001342629575
 61 64 1 0 0
SMALL
USER_CHARGES


@<TRIPOS>ATOM
      1 C1          4.0510    3.4862   47.3050 C.2     1  ZINC001342629575   -0.1800
      2 C2          3.3532    2.3782   47.3430 C.2     1  ZINC001342629575   -0.1600
      3 C3          2.7821    1.8034   46.0724 C.3     1  ZINC001342629575   -0.0800
      4 C4          1.5023    1.0287   46.3932 C.3     1  ZINC001342629575    0.0500
      5 H5          1.7558    0.1149   46.9306 H       1  ZINC001342629575    0.0900
      6 C6          0.6005    1.8807   47.2486 C.2     1  ZINC001342629575    0.2000
      7 N7          0.0976    3.0385   46.9256 N.2     1  ZINC001342629575   -0.2700
      8 N8         -0.6267    3.4882   47.8875 N.2     1  ZINC001342629575   -0.3000
      9 C9         -0.6247    2.6344   48.8839 C.2     1  ZINC001342629575    0.3400
     10 N10        -1.2917    2.7750   50.0905 N.3     1  ZINC001342629575   -0.4300
     11 C11        -2.7558    2.9081   49.8770 C.3     1  ZINC001342629575    0.0400
     12 C12        -3.2777    3.5773   51.1666 C.3     1  ZINC001342629575   -0.1200
     13 C13        -2.0603    4.3213   51.7531 C.3     1  ZINC001342629575   -0.1200
     14 C14        -0.9052    4.0392   50.7684 C.3     1  ZINC001342629575    0.0700
     15 H15        -0.8178    4.8481   50.0431 H       1  ZINC001342629575    0.0900
     16 C16         0.4111    3.8597   51.5273 C.3     1  ZINC001342629575    0.1000
     17 H17         0.3441    2.9919   52.1835 H       1  ZINC001342629575    0.0700
     18 C18         0.7121    5.1242   52.3602 C.3     1  ZINC001342629575   -0.1400
     19 C19         2.2483    5.2738   52.1890 C.3     1  ZINC001342629575   -0.1600
     20 C20         2.4344    4.7579   50.7397 C.3     1  ZINC001342629575    0.0500
     21 O21         1.4874    3.6846   50.5986 O.3     1  ZINC001342629575   -0.3700
     22 N22         0.1535    1.5795   48.5053 N.pl3   1  ZINC001342629575   -0.4600
     23 C23         0.4555    0.3778   49.2869 C.3     1  ZINC001342629575    0.1100
     24 C24        -0.8184   -0.4519   49.4595 C.3     1  ZINC001342629575    0.0500
     25 O25        -1.2836   -0.8826   48.1788 O.3     1  ZINC001342629575   -0.3800
     26 C26        -0.5919   -2.0213   47.6621 C.3     1  ZINC001342629575    0.0300
     27 C27         0.7932    0.6770   45.1109 C.ar    1  ZINC001342629575   -0.0900
     28 C28         1.4873    0.6746   43.9154 C.ar    1  ZINC001342629575   -0.0900
     29 C29         0.8368    0.3519   42.7391 C.ar    1  ZINC001342629575   -0.1200
     30 C30        -0.5078    0.0312   42.7583 C.ar    1  ZINC001342629575   -0.1200
     31 C31        -1.2017    0.0328   43.9539 C.ar    1  ZINC001342629575   -0.1200
     32 C32        -0.5501    0.3512   45.1308 C.ar    1  ZINC001342629575   -0.1100
     33 H33         4.4602    3.8982   48.2156 H       1  ZINC001342629575    0.1000
     34 H34         4.2209    3.9854   46.3625 H       1  ZINC001342629575    0.1000
     35 H35         3.1871    1.8767   48.2850 H       1  ZINC001342629575    0.1000
     36 H36         2.5530    2.6122   45.3785 H       1  ZINC001342629575    0.0900
     37 H37         3.5099    1.1307   45.6187 H       1  ZINC001342629575    0.0800
     38 H38        -2.9580    3.5401   49.0122 H       1  ZINC001342629575    0.0600
     39 H39        -3.2118    1.9267   49.7466 H       1  ZINC001342629575    0.0800
     40 H40        -4.0750    4.2823   50.9314 H       1  ZINC001342629575    0.0800
     41 H41        -3.6336    2.8223   51.8676 H       1  ZINC001342629575    0.0800
     42 H42        -2.2600    5.3916   51.8057 H       1  ZINC001342629575    0.0800
     43 H43        -1.8187    3.9315   52.7419 H       1  ZINC001342629575    0.0800
     44 H44         0.1902    5.9902   51.9531 H       1  ZINC001342629575    0.0900
     45 H45         0.4517    4.9700   53.4074 H       1  ZINC001342629575    0.0800
     46 H46         2.5539    6.3164   52.2771 H       1  ZINC001342629575    0.0800
     47 H47         2.7859    4.6474   52.9009 H       1  ZINC001342629575    0.0800
     48 H48         2.2170    5.5516   50.0248 H       1  ZINC001342629575    0.0600
     49 H49         3.4493    4.3870   50.5975 H       1  ZINC001342629575    0.0900
     50 H50         1.2074   -0.2151   48.7660 H       1  ZINC001342629575    0.1000
     51 H51         0.8359    0.6675   50.2664 H       1  ZINC001342629575    0.1100
     52 H52        -0.6039   -1.3222   50.0797 H       1  ZINC001342629575    0.0600
     53 H53        -1.5857    0.1559   49.9392 H       1  ZINC001342629575    0.0600
     54 H54        -1.0036   -2.2854   46.6880 H       1  ZINC001342629575    0.0900
     55 H55         0.4673   -1.7864   47.5573 H       1  ZINC001342629575    0.0400
     56 H56        -0.7118   -2.8609   48.3469 H       1  ZINC001342629575    0.0400
     57 H57         2.5376    0.9251   43.9004 H       1  ZINC001342629575    0.1300
     58 H58         1.3789    0.3507   41.8051 H       1  ZINC001342629575    0.1200
     59 H59        -1.0162   -0.2201   41.8393 H       1  ZINC001342629575    0.1200
     60 H60        -2.2521   -0.2174   43.9689 H       1  ZINC001342629575    0.1200
     61 H61        -1.0922    0.3524   46.0649 H       1  ZINC001342629575    0.1200
@<TRIPOS>BOND
     1     1     2    2
     2     1    33    1
     3     1    34    1
     4     2     3    1
     5     2    35    1
     6     3     4    1
     7     3    36    1
     8     3    37    1
     9     4     5    1
    10     4     6    1
    11     4    27    1
    12     6    22    1
    13     6     7    2
    14     7     8    1
    15     8     9    2
    16     9    10    1
    17     9    22    1
    18    10    14    1
    19    10    11    1
    20    11    12    1
    21    11    38    1
    22    11    39    1
    23    12    13    1
    24    12    40    1
    25    12    41    1
    26    13    14    1
    27    13    42    1
    28    13    43    1
    29    14    15    1
    30    14    16    1
    31    16    17    1
    32    16    21    1
    33    16    18    1
    34    18    19    1
    35    18    44    1
    36    18    45    1
    37    19    20    1
    38    19    46    1
    39    19    47    1
    40    20    21    1
    41    20    48    1
    42    20    49    1
    43    22    23    1
    44    23    24    1
    45    23    50    1
    46    23    51    1
    47    24    25    1
    48    24    52    1
    49    24    53    1
    50    25    26    1
    51    26    54    1
    52    26    55    1
    53    26    56    1
    54    27    32   ar
    55    27    28   ar
    56    28    29   ar
    57    28    57    1
    58    29    30   ar
    59    29    58    1
    60    30    31   ar
    61    30    59    1
    62    31    32   ar
    63    31    60    1
    64    32    61    1
@<TRIPOS>SUBSTRUCTURE
     1 ZINC001342629575        1 TEMP              0 ****  ****    0 ROOT


##########                                Name:    ZINC000474368324
##########                DOCK_Rotatable_Bonds:                   9
##########                         Heavy_Atoms:                  27
##########                    Molecular_Weight:             417.332
##########                DOCK_Rotatable_Bonds:                   9
##########                       Formal_Charge:        -1.63913e-07
##########                     HBond_Acceptors:                   8
##########                        HBond_Donors:                   1
##########                         Heavy_Atoms:                  27
##########                          Grid_Score:          -30.483892
##########                     Grid_vdw_energy:          -30.436741
##########                      Grid_es_energy:           -0.047152
##########           Internal_energy_repulsive:           28.798264

@<TRIPOS>MOLECULE
ZINC000474368324
 53 54 1 0 0
SMALL
USER_CHARGES


@<TRIPOS>ATOM
      1 C1        -14.4937   -0.2697   60.4080 C.3     1  ZINC000474368324   -0.1500
      2 C2        -13.3483    0.6347   60.8676 C.3     1  ZINC000474368324    0.0600
      3 O3        -12.0832   -0.0523   60.6776 O.3     1  ZINC000474368324   -0.3300
      4 C4        -10.9711    0.6088   61.0353 C.2     1  ZINC000474368324    0.4700
      5 O5        -10.9835    1.3331   62.0023 O.2     1  ZINC000474368324   -0.5100
      6 C6         -9.7071    0.4476   60.2307 C.3     1  ZINC000474368324   -0.0400
      7 C7         -8.9613   -0.8038   60.6983 C.3     1  ZINC000474368324    0.0600
      8 O8         -9.2579   -1.0488   62.0744 O.3     1  ZINC000474368324   -0.3700
      9 C9         -8.1832   -0.7412   62.9645 C.3     1  ZINC000474368324    0.0300
     10 C10       -10.0609    0.3059   58.7484 C.3     1  ZINC000474368324   -0.1200
     11 C11        -8.7763    0.1076   57.9377 C.3     1  ZINC000474368324    0.1100
     12 N12        -7.8541    1.2121   58.2350 N.am    1  ZINC000474368324   -0.6300
     13 C13        -7.3274    1.9536   57.2405 C.2     1  ZINC000474368324    0.7100
     14 O14        -6.5654    2.8650   57.4996 O.2     1  ZINC000474368324   -0.5800
     15 N15        -7.6452    1.6848   55.9586 N.am    1  ZINC000474368324   -0.7400
     16 C16        -7.0727    2.4907   54.8775 C.3     1  ZINC000474368324    0.2000
     17 H17        -6.0810    2.8372   55.1685 H       1  ZINC000474368324    0.1100
     18 C18        -7.9751    3.6964   54.6073 C.3     1  ZINC000474368324   -0.1600
     19 C19        -6.9660    1.6534   53.6290 C.ar    1  ZINC000474368324   -0.0700
     20 C20        -7.7745    0.5440   53.4699 C.ar    1  ZINC000474368324   -0.1000
     21 C21        -7.6776   -0.2246   52.3246 C.ar    1  ZINC000474368324   -0.0900
     22 C22        -6.7721    0.1158   51.3377 C.ar    1  ZINC000474368324   -0.1000
     23 C23        -5.9619    1.2261   51.4953 C.ar    1  ZINC000474368324   -0.0300
     24 Cl24       -4.8242    1.6541   50.2558 Cl      1  ZINC000474368324   -0.0400
     25 C25        -6.0626    1.9986   52.6397 C.ar    1  ZINC000474368324   -0.0300
     26 Cl26       -5.0471    3.3925   52.8388 Cl      1  ZINC000474368324   -0.0400
     27 C27        -7.5176    1.4933   59.6374 C.3     1  ZINC000474368324    0.1300
     28 C28        -8.8163    1.6761   60.4290 C.3     1  ZINC000474368324   -0.1200
     29 H29       -15.4433    0.2460   60.5507 H       1  ZINC000474368324    0.0800
     30 H30       -14.3658   -0.5101   59.3527 H       1  ZINC000474368324    0.0700
     31 H31       -14.4880   -1.1891   60.9935 H       1  ZINC000474368324    0.0700
     32 H32       -13.3540    1.5541   60.2822 H       1  ZINC000474368324    0.0700
     33 H33       -13.4762    0.8751   61.9230 H       1  ZINC000474368324    0.0700
     34 H34        -9.2765   -1.6591   60.1008 H       1  ZINC000474368324    0.0700
     35 H35        -7.8883   -0.6530   60.5792 H       1  ZINC000474368324    0.0600
     36 H36        -7.3150   -1.3489   62.7095 H       1  ZINC000474368324    0.0400
     37 H37        -7.9270    0.3144   62.8737 H       1  ZINC000474368324    0.0400
     38 H38        -8.4875   -0.9543   63.9892 H       1  ZINC000474368324    0.0900
     39 H39       -10.7143   -0.5556   58.6111 H       1  ZINC000474368324    0.1000
     40 H40       -10.5702    1.2074   58.4082 H       1  ZINC000474368324    0.0800
     41 H41        -8.3127   -0.8397   58.2134 H       1  ZINC000474368324    0.0800
     42 H42        -9.0124    0.1052   56.8736 H       1  ZINC000474368324    0.0800
     43 H43        -8.2531    0.9577   55.7519 H       1  ZINC000474368324    0.3900
     44 H44        -8.9668    3.3500   54.3163 H       1  ZINC000474368324    0.0600
     45 H45        -8.0523    4.3021   55.5103 H       1  ZINC000474368324    0.0700
     46 H46        -7.5491    4.2961   53.8029 H       1  ZINC000474368324    0.0700
     47 H47        -8.4823    0.2770   54.2408 H       1  ZINC000474368324    0.1300
     48 H48        -8.3098   -1.0916   52.2014 H       1  ZINC000474368324    0.1400
     49 H49        -6.6966   -0.4851   50.4434 H       1  ZINC000474368324    0.1500
     50 H50        -6.9514    0.6591   60.0516 H       1  ZINC000474368324    0.0700
     51 H51        -6.9233    2.4053   59.6947 H       1  ZINC000474368324    0.1100
     52 H52        -9.3374    2.5647   60.0729 H       1  ZINC000474368324    0.0900
     53 H53        -8.5839    1.7899   61.4879 H       1  ZINC000474368324    0.0900
@<TRIPOS>BOND
     1     1     2    1
     2     1    29    1
     3     1    30    1
     4     1    31    1
     5     2     3    1
     6     2    32    1
     7     2    33    1
     8     3     4    1
     9     4     5    2
    10     4     6    1
    11     6    28    1
    12     6     7    1
    13     6    10    1
    14     7     8    1
    15     7    34    1
    16     7    35    1
    17     8     9    1
    18     9    36    1
    19     9    37    1
    20     9    38    1
    21    10    11    1
    22    10    39    1
    23    10    40    1
    24    11    12    1
    25    11    41    1
    26    11    42    1
    27    12    13   am
    28    12    27    1
    29    13    14    2
    30    13    15   am
    31    15    16    1
    32    15    43    1
    33    16    17    1
    34    16    18    1
    35    16    19    1
    36    18    44    1
    37    18    45    1
    38    18    46    1
    39    19    25   ar
    40    19    20   ar
    41    20    21   ar
    42    20    47    1
    43    21    22   ar
    44    21    48    1
    45    22    23   ar
    46    22    49    1
    47    23    24    1
    48    23    25   ar
    49    25    26    1
    50    27    28    1
    51    27    50    1
    52    27    51    1
    53    28    52    1
    54    28    53    1
@<TRIPOS>SUBSTRUCTURE
     1 ZINC000474368324        1 TEMP              0 ****  ****    0 ROOT


##########                                Name:    ZINC001023148918
##########                DOCK_Rotatable_Bonds:                   6
##########                         Heavy_Atoms:                  25
##########                    Molecular_Weight:             348.402
##########                DOCK_Rotatable_Bonds:                   6
##########                       Formal_Charge:           0.0199999
##########                     HBond_Acceptors:                   8
##########                        HBond_Donors:                   2
##########                         Heavy_Atoms:                  25
##########                          Grid_Score:          -30.480097
##########                     Grid_vdw_energy:          -30.741871
##########                      Grid_es_energy:            0.261774
##########           Internal_energy_repulsive:           12.262735

@<TRIPOS>MOLECULE
ZINC001023148918
 49 52 1 0 0
SMALL
USER_CHARGES


@<TRIPOS>ATOM
      1 C1         -1.0775    1.9372   45.3385 C.3     1  ZINC001023148918   -0.0700
      2 C2         -1.3283    2.2969   46.7804 C.2     1  ZINC001023148918    0.0200
      3 N3         -0.4905    2.9072   47.5791 N.2     1  ZINC001023148918   -0.2700
      4 N4         -1.0031    3.0680   48.7457 N.pl3   1  ZINC001023148918   -0.2500
      5 C5         -0.3368    3.7141   49.8790 C.3     1  ZINC001023148918    0.0800
      6 C6         -2.2647    2.5445   48.7684 C.2     1  ZINC001023148918   -0.0400
      7 C7         -3.1920    2.5237   49.9109 C.2     1  ZINC001023148918    0.6000
      8 O8         -2.8795    3.0586   50.9576 O.2     1  ZINC001023148918   -0.5300
      9 N9         -4.3877    1.9121   49.7973 N.am    1  ZINC001023148918   -0.7000
     10 C10        -5.3107    1.8915   50.9348 C.3     1  ZINC001023148918    0.1500
     11 H11        -4.7665    1.9408   51.8778 H       1  ZINC001023148918    0.1200
     12 C12        -6.2247    0.6417   50.8856 C.3     1  ZINC001023148918    0.1000
     13 N13        -7.4301    1.0256   51.6427 N.am    1  ZINC001023148918   -0.6200
     14 C14        -8.2774    0.1747   52.2545 C.2     1  ZINC001023148918    0.5400
     15 O15        -8.0763   -1.0204   52.2069 O.2     1  ZINC001023148918   -0.5200
     16 C16        -9.4748    0.7083   52.9979 C.3     1  ZINC001023148918   -0.1400
     17 H17        -9.8725    1.5937   52.5018 H       1  ZINC001023148918    0.1100
     18 C18        -9.1114    1.0215   54.4718 C.3     1  ZINC001023148918   -0.1400
     19 C19       -10.0462    0.0629   55.2687 C.3     1  ZINC001023148918    0.0600
     20 H20        -9.7233   -0.1677   56.2840 H       1  ZINC001023148918    0.1300
     21 C21       -11.4715    0.6803   55.1449 C.3     1  ZINC001023148918   -0.1500
     22 C22       -11.8484    0.3806   53.6716 C.3     1  ZINC001023148918   -0.1500
     23 C23       -10.5734   -0.3883   53.1345 C.3     1  ZINC001023148918    0.0900
     24 H24       -10.7404   -1.0152   52.2586 H       1  ZINC001023148918    0.1400
     25 O25       -10.1307   -1.0792   54.3544 O.3     1  ZINC001023148918   -0.3600
     26 C26        -7.5541    2.4904   51.6203 C.3     1  ZINC001023148918    0.0700
     27 C27        -6.3476    3.0410   50.8303 C.3     1  ZINC001023148918    0.0900
     28 H28        -6.6180    3.2223   49.7900 H       1  ZINC001023148918    0.0800
     29 O29        -5.8488    4.2350   51.4365 O.3     1  ZINC001023148918   -0.5500
     30 C30        -2.4985    2.0434   47.4996 C.2     1  ZINC001023148918   -0.1800
     31 H31        -1.3940    2.7605   44.6983 H       1  ZINC001023148918    0.0800
     32 H32        -0.0139    1.7499   45.1905 H       1  ZINC001023148918    0.0700
     33 H33        -1.6431    1.0408   45.0841 H       1  ZINC001023148918    0.0800
     34 H34        -0.4958    4.7913   49.8281 H       1  ZINC001023148918    0.0900
     35 H35        -0.7506    3.3296   50.8113 H       1  ZINC001023148918    0.1100
     36 H36         0.7317    3.5024   49.8412 H       1  ZINC001023148918    0.0900
     37 H37        -4.6369    1.4856   48.9626 H       1  ZINC001023148918    0.4100
     38 H38        -6.4846    0.4020   49.8546 H       1  ZINC001023148918    0.0800
     39 H39        -5.7326   -0.2070   51.3608 H       1  ZINC001023148918    0.0900
     40 H40        -8.0643    0.7916   54.6685 H       1  ZINC001023148918    0.0800
     41 H41        -9.3309    2.0621   54.7109 H       1  ZINC001023148918    0.0900
     42 H42       -12.1652    0.1904   55.8283 H       1  ZINC001023148918    0.0800
     43 H43       -11.4439    1.7548   55.3256 H       1  ZINC001023148918    0.0800
     44 H44       -12.7299   -0.2584   53.6207 H       1  ZINC001023148918    0.0800
     45 H45       -12.0085    1.3060   53.1182 H       1  ZINC001023148918    0.0800
     46 H46        -8.4828    2.7763   51.1262 H       1  ZINC001023148918    0.0800
     47 H47        -7.5385    2.8794   52.6384 H       1  ZINC001023148918    0.0900
     48 H48        -5.4712    4.1012   52.3166 H       1  ZINC001023148918    0.3900
     49 H49        -3.3931    1.5545   47.1432 H       1  ZINC001023148918    0.1600
@<TRIPOS>BOND
     1     1     2    1
     2     1    31    1
     3     1    32    1
     4     1    33    1
     5     2    30    1
     6     2     3    2
     7     3     4    1
     8     4     5    1
     9     4     6    1
    10     5    34    1
    11     5    35    1
    12     5    36    1
    13     6     7    1
    14     6    30    2
    15     7     8    2
    16     7     9   am
    17     9    10    1
    18     9    37    1
    19    10    11    1
    20    10    27    1
    21    10    12    1
    22    12    13    1
    23    12    38    1
    24    12    39    1
    25    13    14   am
    26    13    26    1
    27    14    15    2
    28    14    16    1
    29    16    17    1
    30    16    23    1
    31    16    18    1
    32    18    19    1
    33    18    40    1
    34    18    41    1
    35    19    20    1
    36    19    25    1
    37    19    21    1
    38    21    22    1
    39    21    42    1
    40    21    43    1
    41    22    23    1
    42    22    44    1
    43    22    45    1
    44    23    24    1
    45    23    25    1
    46    26    27    1
    47    26    46    1
    48    26    47    1
    49    27    28    1
    50    27    29    1
    51    29    48    1
    52    30    49    1
@<TRIPOS>SUBSTRUCTURE
     1 ZINC001023148918        1 TEMP              0 ****  ****    0 ROOT


##########                                Name:    ZINC000840464592
##########                DOCK_Rotatable_Bonds:                  10
##########                         Heavy_Atoms:                  26
##########                    Molecular_Weight:             360.497
##########                DOCK_Rotatable_Bonds:                  10
##########                       Formal_Charge:          -0.0399996
##########                     HBond_Acceptors:                   5
##########                        HBond_Donors:                   1
##########                         Heavy_Atoms:                  26
##########                          Grid_Score:          -30.460783
##########                     Grid_vdw_energy:          -31.414885
##########                      Grid_es_energy:            0.954101
##########           Internal_energy_repulsive:           84.311768

@<TRIPOS>MOLECULE
ZINC000840464592
 58 59 1 0 0
SMALL
USER_CHARGES


@<TRIPOS>ATOM
      1 C1         -4.9034    2.3334   66.4857 C.3     1  ZINC000840464592   -0.1500
      2 C2         -5.1171    0.8188   66.4476 C.3     1  ZINC000840464592   -0.1300
      3 C3         -6.5945    0.5186   66.1874 C.3     1  ZINC000840464592   -0.1200
      4 C4         -7.0099    1.1262   64.8460 C.3     1  ZINC000840464592   -0.1200
      5 C5         -8.3246    0.4938   64.3849 C.3     1  ZINC000840464592   -0.1200
      6 C6         -8.0358   -0.5590   63.3129 C.3     1  ZINC000840464592    0.0600
      7 O7         -7.7007    0.0908   62.0852 O.3     1  ZINC000840464592   -0.3600
      8 C8         -8.8258    0.3708   61.2498 C.3     1  ZINC000840464592    0.0800
      9 H9         -9.7449    0.2285   61.8184 H       1  ZINC000840464592    0.0800
     10 C10        -8.7488    1.8177   60.7586 C.3     1  ZINC000840464592   -0.1800
     11 C11        -8.8177   -0.5625   60.0666 C.2     1  ZINC000840464592    0.5200
     12 O12        -7.7963   -1.1372   59.7546 O.2     1  ZINC000840464592   -0.5000
     13 N13        -9.9454   -0.7585   59.3551 N.am    1  ZINC000840464592   -0.6000
     14 C14       -11.1732   -0.0642   59.7345 C.3     1  ZINC000840464592    0.0900
     15 C15       -12.2650   -1.0447   60.1478 C.3     1  ZINC000840464592   -0.1600
     16 C16       -12.6391   -1.9457   58.9688 C.3     1  ZINC000840464592    0.0800
     17 N17       -11.7674   -3.1256   58.9718 N.am    1  ZINC000840464592   -0.7200
     18 C18       -10.4709   -3.0124   58.6423 C.2     1  ZINC000840464592    0.5100
     19 O19        -9.7387   -3.9779   58.6947 O.2     1  ZINC000840464592   -0.5200
     20 C20        -9.9312   -1.6630   58.2006 C.3     1  ZINC000840464592    0.1400
     21 H21        -8.9101   -1.7786   57.8375 H       1  ZINC000840464592    0.1300
     22 C22       -10.8120   -1.0985   57.0841 C.3     1  ZINC000840464592   -0.1000
     23 C23        -9.9429   -0.6422   55.9407 C.ar    1  ZINC000840464592   -0.0900
     24 C24        -8.9654    0.3118   56.1534 C.ar    1  ZINC000840464592   -0.1100
     25 C25        -8.1681    0.7303   55.1047 C.ar    1  ZINC000840464592   -0.1200
     26 C26        -8.3481    0.1946   53.8432 C.ar    1  ZINC000840464592   -0.1200
     27 C27        -9.3250   -0.7601   53.6306 C.ar    1  ZINC000840464592   -0.1200
     28 C28       -10.1194   -1.1817   54.6803 C.ar    1  ZINC000840464592   -0.1100
     29 H29        -5.5078    2.7656   67.2831 H       1  ZINC000840464592    0.0500
     30 H30        -3.8508    2.5472   66.6712 H       1  ZINC000840464592    0.0500
     31 H31        -5.1992    2.7661   65.5301 H       1  ZINC000840464592    0.0500
     32 H32        -4.5125    0.3866   65.6502 H       1  ZINC000840464592    0.0600
     33 H33        -4.8212    0.3859   67.4032 H       1  ZINC000840464592    0.0600
     34 H34        -6.7468   -0.5604   66.1602 H       1  ZINC000840464592    0.0600
     35 H35        -7.1990    0.9510   66.9847 H       1  ZINC000840464592    0.0600
     36 H36        -7.1446    2.2017   64.9605 H       1  ZINC000840464592    0.0600
     37 H37        -6.2345    0.9340   64.1044 H       1  ZINC000840464592    0.0600
     38 H38        -8.8181    0.0215   65.2344 H       1  ZINC000840464592    0.0700
     39 H39        -8.9733    1.2655   63.9708 H       1  ZINC000840464592    0.0700
     40 H40        -7.2019   -1.1838   63.6327 H       1  ZINC000840464592    0.0500
     41 H41        -8.9196   -1.1799   63.1661 H       1  ZINC000840464592    0.0500
     42 H42        -9.5675    2.0101   60.0652 H       1  ZINC000840464592    0.0800
     43 H43        -8.8264    2.4948   61.6093 H       1  ZINC000840464592    0.0700
     44 H44        -7.7976    1.9790   60.2515 H       1  ZINC000840464592    0.0800
     45 H45       -10.9610    0.6048   60.5685 H       1  ZINC000840464592    0.1000
     46 H46       -11.5255    0.5249   58.8877 H       1  ZINC000840464592    0.0800
     47 H47       -11.9047   -1.6598   60.9725 H       1  ZINC000840464592    0.0800
     48 H48       -13.1453   -0.4896   60.4717 H       1  ZINC000840464592    0.1000
     49 H49       -13.6783   -2.2601   59.0656 H       1  ZINC000840464592    0.0900
     50 H50       -12.5080   -1.3981   58.0356 H       1  ZINC000840464592    0.1000
     51 H51       -12.1296   -3.9924   59.2136 H       1  ZINC000840464592    0.4000
     52 H52       -11.4959   -1.8719   56.7346 H       1  ZINC000840464592    0.0900
     53 H53       -11.3844   -0.2528   57.4654 H       1  ZINC000840464592    0.1000
     54 H54        -8.8248    0.7304   57.1391 H       1  ZINC000840464592    0.1200
     55 H55        -7.4049    1.4762   55.2708 H       1  ZINC000840464592    0.1200
     56 H56        -7.7257    0.5220   53.0235 H       1  ZINC000840464592    0.1200
     57 H57        -9.4658   -1.1784   52.6448 H       1  ZINC000840464592    0.1200
     58 H58       -10.8826   -1.9275   54.5142 H       1  ZINC000840464592    0.1200
@<TRIPOS>BOND
     1     1     2    1
     2     1    29    1
     3     1    30    1
     4     1    31    1
     5     2     3    1
     6     2    32    1
     7     2    33    1
     8     3     4    1
     9     3    34    1
    10     3    35    1
    11     4     5    1
    12     4    36    1
    13     4    37    1
    14     5     6    1
    15     5    38    1
    16     5    39    1
    17     6     7    1
    18     6    40    1
    19     6    41    1
    20     7     8    1
    21     8     9    1
    22     8    10    1
    23     8    11    1
    24    10    42    1
    25    10    43    1
    26    10    44    1
    27    11    12    2
    28    11    13   am
    29    13    20    1
    30    13    14    1
    31    14    15    1
    32    14    45    1
    33    14    46    1
    34    15    16    1
    35    15    47    1
    36    15    48    1
    37    16    17    1
    38    16    49    1
    39    16    50    1
    40    17    18   am
    41    17    51    1
    42    18    19    2
    43    18    20    1
    44    20    21    1
    45    20    22    1
    46    22    23    1
    47    22    52    1
    48    22    53    1
    49    23    28   ar
    50    23    24   ar
    51    24    25   ar
    52    24    54    1
    53    25    26   ar
    54    25    55    1
    55    26    27   ar
    56    26    56    1
    57    27    28   ar
    58    27    57    1
    59    28    58    1
@<TRIPOS>SUBSTRUCTURE
     1 ZINC000840464592        1 TEMP              0 ****  ****    0 ROOT


##########                                Name:    ZINC001067316277
##########                DOCK_Rotatable_Bonds:                   5
##########                         Heavy_Atoms:                  24
##########                    Molecular_Weight:             345.469
##########                DOCK_Rotatable_Bonds:                   5
##########                       Formal_Charge:          -0.0200007
##########                     HBond_Acceptors:                   7
##########                        HBond_Donors:                   2
##########                         Heavy_Atoms:                  24
##########                          Grid_Score:          -30.427803
##########                     Grid_vdw_energy:          -29.593019
##########                      Grid_es_energy:           -0.834784
##########           Internal_energy_repulsive:            7.732822

@<TRIPOS>MOLECULE
ZINC001067316277
 47 49 1 0 0
SMALL
USER_CHARGES


@<TRIPOS>ATOM
      1 C1          3.4388    1.1332   42.3617 C.3     1  ZINC001067316277   -0.1400
      2 S2          2.1884    0.4529   41.2438 S.3     1  ZINC001067316277   -0.0400
      3 C3          0.8494    0.2482   42.3707 C.ar    1  ZINC001067316277    0.1800
      4 C4         -0.3318   -0.3759   41.9621 C.ar    1  ZINC001067316277   -0.2400
      5 C5         -1.3548   -0.5144   42.8793 C.ar    1  ZINC001067316277    0.1900
      6 N6         -1.1881   -0.0550   44.1110 N.ar    1  ZINC001067316277   -0.5600
      7 C7         -0.0567    0.5330   44.4717 C.ar    1  ZINC001067316277    0.5100
      8 N8          0.0781    0.9993   45.7677 N.3     1  ZINC001067316277   -0.4600
      9 C9         -0.5399    2.3229   45.9177 C.3     1  ZINC001067316277    0.0700
     10 C10        -0.2464    2.8688   47.3169 C.3     1  ZINC001067316277   -0.1300
     11 C11        -0.8058    1.9021   48.3643 C.3     1  ZINC001067316277    0.1600
     12 H12        -1.8883    1.8339   48.2556 H       1  ZINC001067316277    0.0900
     13 N13        -0.4783    2.3908   49.7060 N.am    1  ZINC001067316277   -0.7200
     14 C14        -1.3690    3.1390   50.3867 C.2     1  ZINC001067316277    0.5900
     15 O15        -2.4447    3.4098   49.8863 O.2     1  ZINC001067316277   -0.5300
     16 C16        -1.0418    3.6267   51.7308 C.2     1  ZINC001067316277   -0.0600
     17 C17        -1.8537    4.3929   52.5397 C.2     1  ZINC001067316277   -0.1000
     18 C18        -1.1494    4.6275   53.7247 C.2     1  ZINC001067316277   -0.2100
     19 C19         0.0539    4.0142   53.6212 C.2     1  ZINC001067316277    0.0300
     20 N20         0.1296    3.3978   52.4165 N.pl3   1  ZINC001067316277   -0.5400
     21 C21        -0.1825    0.5192   48.1556 C.3     1  ZINC001067316277   -0.0700
     22 C22         1.3311    0.6048   48.3619 C.3     1  ZINC001067316277   -0.1400
     23 C23        -0.7801   -0.4674   49.1607 C.3     1  ZINC001067316277   -0.1400
     24 C24        -0.4778    0.0415   46.7320 C.3     1  ZINC001067316277    0.0800
     25 N25         0.9503    0.6807   43.6245 N.ar    1  ZINC001067316277   -0.5400
     26 H26         3.0738    2.0667   42.7901 H       1  ZINC001067316277    0.0900
     27 H27         3.6380    0.4198   43.1614 H       1  ZINC001067316277    0.0900
     28 H28         4.3577    1.3230   41.8068 H       1  ZINC001067316277    0.1000
     29 H29        -0.4426   -0.7414   40.9518 H       1  ZINC001067316277    0.1500
     30 H30        -2.2811   -0.9918   42.5957 H       1  ZINC001067316277    0.1700
     31 H31        -0.1303    3.0018   45.1697 H       1  ZINC001067316277    0.1000
     32 H32        -1.6178    2.2383   45.7795 H       1  ZINC001067316277    0.0500
     33 H33         0.8309    2.9668   47.4507 H       1  ZINC001067316277    0.0800
     34 H34        -0.7183    3.8444   47.4333 H       1  ZINC001067316277    0.0800
     35 H35         0.3796    2.1759   50.1044 H       1  ZINC001067316277    0.3900
     36 H36        -2.8466    4.7457   52.3028 H       1  ZINC001067316277    0.1500
     37 H37        -1.5020    5.1969   54.5719 H       1  ZINC001067316277    0.1500
     38 H38         0.8255    4.0133   54.3769 H       1  ZINC001067316277    0.1700
     39 H39         0.8857    2.8856   52.0897 H       1  ZINC001067316277    0.4100
     40 H40         1.5409    0.9485   49.3749 H       1  ZINC001067316277    0.0500
     41 H41         1.7743   -0.3798   48.2133 H       1  ZINC001067316277    0.0600
     42 H42         1.7565    1.3068   47.6448 H       1  ZINC001067316277    0.0700
     43 H43        -1.8582   -0.5290   49.0123 H       1  ZINC001067316277    0.0600
     44 H44        -0.3359   -1.4516   49.0117 H       1  ZINC001067316277    0.0600
     45 H45        -0.5718   -0.1245   50.1742 H       1  ZINC001067316277    0.0600
     46 H46        -1.5560   -0.0325   46.5901 H       1  ZINC001067316277    0.0600
     47 H47        -0.0231   -0.9368   46.5756 H       1  ZINC001067316277    0.1000
@<TRIPOS>BOND
     1     1     2    1
     2     1    26    1
     3     1    27    1
     4     1    28    1
     5     2     3    1
     6     3    25   ar
     7     3     4   ar
     8     4     5   ar
     9     4    29    1
    10     5     6   ar
    11     5    30    1
    12     6     7   ar
    13     7     8    1
    14     7    25   ar
    15     8    24    1
    16     8     9    1
    17     9    10    1
    18     9    31    1
    19     9    32    1
    20    10    11    1
    21    10    33    1
    22    10    34    1
    23    11    12    1
    24    11    13    1
    25    11    21    1
    26    13    14   am
    27    13    35    1
    28    14    15    2
    29    14    16    1
    30    16    20    1
    31    16    17    2
    32    17    18    1
    33    17    36    1
    34    18    19    2
    35    18    37    1
    36    19    20    1
    37    19    38    1
    38    20    39    1
    39    21    22    1
    40    21    23    1
    41    21    24    1
    42    22    40    1
    43    22    41    1
    44    22    42    1
    45    23    43    1
    46    23    44    1
    47    23    45    1
    48    24    46    1
    49    24    47    1
@<TRIPOS>SUBSTRUCTURE
     1 ZINC001067316277        1 TEMP              0 ****  ****    0 ROOT


##########                                Name:    ZINC001060733018
##########                DOCK_Rotatable_Bonds:                   7
##########                         Heavy_Atoms:                  24
##########                    Molecular_Weight:             342.429
##########                DOCK_Rotatable_Bonds:                   7
##########                       Formal_Charge:           0.0200001
##########                     HBond_Acceptors:                   6
##########                        HBond_Donors:                   2
##########                         Heavy_Atoms:                  24
##########                          Grid_Score:          -30.416374
##########                     Grid_vdw_energy:          -28.724981
##########                      Grid_es_energy:           -1.691392
##########           Internal_energy_repulsive:            8.990419

@<TRIPOS>MOLECULE
ZINC001060733018
 52 54 1 0 0
SMALL
USER_CHARGES


@<TRIPOS>ATOM
      1 O1        -10.8523    3.2003   51.5763 O.2     1  ZINC001060733018   -0.5000
      2 C2        -10.2045    3.7600   50.7173 C.2     1  ZINC001060733018    0.4700
      3 N3         -8.9048    4.0453   50.9318 N.am    1  ZINC001060733018   -0.7100
      4 C4         -8.2757    3.6830   52.2043 C.3     1  ZINC001060733018    0.1200
      5 C5         -6.8010    3.3515   51.9680 C.3     1  ZINC001060733018   -0.1000
      6 H6         -6.3371    3.0654   52.9121 H       1  ZINC001060733018    0.0800
      7 C7         -6.6914    2.1933   50.9743 C.3     1  ZINC001060733018   -0.1100
      8 C8         -5.2166    1.8617   50.7381 C.3     1  ZINC001060733018   -0.1300
      9 C9         -4.5023    3.0900   50.1705 C.3     1  ZINC001060733018    0.1400
     10 H10        -4.9662    3.3761   49.2265 H       1  ZINC001060733018    0.0900
     11 N11        -3.0902    2.7724   49.9442 N.am    1  ZINC001060733018   -0.7300
     12 C12        -2.6919    2.2824   48.7535 C.2     1  ZINC001060733018    0.5200
     13 O13        -3.5025    2.1056   47.8688 O.2     1  ZINC001060733018   -0.5400
     14 C14        -1.2396    1.9541   48.5215 C.3     1  ZINC001060733018   -0.1000
     15 H15        -0.7325    2.8243   48.1047 H       1  ZINC001060733018    0.1000
     16 C16        -1.1314    0.7836   47.5430 C.3     1  ZINC001060733018   -0.1100
     17 C17         0.3398    0.4916   47.2444 C.3     1  ZINC001060733018   -0.1200
     18 C18         1.0461    0.0600   48.5333 C.3     1  ZINC001060733018   -0.0800
     19 C19         0.8667    1.1561   49.5877 C.3     1  ZINC001060733018   -0.1300
     20 C20         1.9409    2.2399   49.6751 C.3     1  ZINC001060733018   -0.1700
     21 C21         1.8373    1.1738   50.7679 C.3     1  ZINC001060733018   -0.1700
     22 C22        -0.5842    1.5695   49.8514 C.3     1  ZINC001060733018   -0.0600
     23 C23        -4.6118    4.2482   51.1641 C.3     1  ZINC001060733018   -0.1200
     24 C24        -6.0867    4.5797   51.4004 C.3     1  ZINC001060733018   -0.1100
     25 C25       -10.8510    4.1311   49.4076 C.3     1  ZINC001060733018    0.2600
     26 F26       -12.1874    4.4803   49.6298 F       1  ZINC001060733018   -0.1700
     27 F27       -10.1728    5.2172   48.8438 F       1  ZINC001060733018   -0.1900
     28 H28        -8.3859    4.4905   50.2438 H       1  ZINC001060733018    0.4100
     29 H29        -8.3534    4.5193   52.8991 H       1  ZINC001060733018    0.0800
     30 H30        -8.7808    2.8134   52.6247 H       1  ZINC001060733018    0.0800
     31 H31        -7.2002    1.3183   51.3787 H       1  ZINC001060733018    0.0700
     32 H32        -7.1553    2.4794   50.0304 H       1  ZINC001060733018    0.0700
     33 H33        -5.1386    1.0367   50.0301 H       1  ZINC001060733018    0.0700
     34 H34        -4.7528    1.5756   51.6820 H       1  ZINC001060733018    0.0600
     35 H35        -2.4417    2.9150   50.6514 H       1  ZINC001060733018    0.4000
     36 H36        -1.5941   -0.1000   47.9826 H       1  ZINC001060733018    0.0700
     37 H37        -1.6446    1.0380   46.6157 H       1  ZINC001060733018    0.0700
     38 H38         0.4092   -0.3080   46.5068 H       1  ZINC001060733018    0.0700
     39 H39         0.8164    1.3900   46.8522 H       1  ZINC001060733018    0.0700
     40 H40         0.6084   -0.8702   48.8956 H       1  ZINC001060733018    0.0700
     41 H41         2.1080   -0.0867   48.3363 H       1  ZINC001060733018    0.0700
     42 H42         2.7813    2.1726   48.9842 H       1  ZINC001060733018    0.0900
     43 H43         1.6173    3.2504   49.9252 H       1  ZINC001060733018    0.0900
     44 H44         1.4456    1.4828   51.7370 H       1  ZINC001060733018    0.0900
     45 H45         2.6093    0.4049   50.7962 H       1  ZINC001060733018    0.0900
     46 H46        -0.6032    2.4236   50.5284 H       1  ZINC001060733018    0.0700
     47 H47        -1.1260    0.7356   50.2978 H       1  ZINC001060733018    0.0800
     48 H48        -4.1029    5.1232   50.7598 H       1  ZINC001060733018    0.0700
     49 H49        -4.1480    3.9621   52.1082 H       1  ZINC001060733018    0.0700
     50 H50        -6.5504    4.8659   50.4565 H       1  ZINC001060733018    0.0700
     51 H51        -6.1647    5.4049   52.1084 H       1  ZINC001060733018    0.0700
     52 H52       -10.8059    3.2814   48.7265 H       1  ZINC001060733018    0.1400
@<TRIPOS>BOND
     1     1     2    2
     2     2     3   am
     3     2    25    1
     4     3     4    1
     5     3    28    1
     6     4     5    1
     7     4    29    1
     8     4    30    1
     9     5     6    1
    10     5    24    1
    11     5     7    1
    12     7     8    1
    13     7    31    1
    14     7    32    1
    15     8     9    1
    16     8    33    1
    17     8    34    1
    18     9    10    1
    19     9    11    1
    20     9    23    1
    21    11    12   am
    22    11    35    1
    23    12    13    2
    24    12    14    1
    25    14    15    1
    26    14    22    1
    27    14    16    1
    28    16    17    1
    29    16    36    1
    30    16    37    1
    31    17    18    1
    32    17    38    1
    33    17    39    1
    34    18    19    1
    35    18    40    1
    36    18    41    1
    37    19    21    1
    38    19    20    1
    39    19    22    1
    40    20    21    1
    41    20    42    1
    42    20    43    1
    43    21    44    1
    44    21    45    1
    45    22    46    1
    46    22    47    1
    47    23    24    1
    48    23    48    1
    49    23    49    1
    50    24    50    1
    51    24    51    1
    52    25    26    1
    53    25    27    1
    54    25    52    1
@<TRIPOS>SUBSTRUCTURE
     1 ZINC001060733018        1 TEMP              0 ****  ****    0 ROOT


##########                                Name:    ZINC000479580180
##########                DOCK_Rotatable_Bonds:                   5
##########                         Heavy_Atoms:                  30
##########                    Molecular_Weight:             404.444
##########                DOCK_Rotatable_Bonds:                   5
##########                       Formal_Charge:           0.0299995
##########                     HBond_Acceptors:                   7
##########                        HBond_Donors:                   1
##########                         Heavy_Atoms:                  30
##########                          Grid_Score:          -30.381712
##########                     Grid_vdw_energy:          -28.657511
##########                      Grid_es_energy:           -1.724201
##########           Internal_energy_repulsive:           16.024792

@<TRIPOS>MOLECULE
ZINC000479580180
 51 55 1 0 0
SMALL
USER_CHARGES


@<TRIPOS>ATOM
      1 O1         -5.7989    5.6237   53.1106 O.2     1  ZINC000479580180   -0.5200
      2 C2         -6.2301    4.5073   52.9144 C.2     1  ZINC000479580180    0.5200
      3 C3         -6.7779    4.1385   51.5598 C.3     1  ZINC000479580180   -0.0700
      4 C4         -5.8336    3.1809   50.8797 C.2     1  ZINC000479580180   -0.1600
      5 C5         -6.1455    2.0033   50.3222 C.2     1  ZINC000479580180    0.0300
      6 O6         -5.0435    1.4260   49.8114 O.3     1  ZINC000479580180   -0.1900
      7 C7         -3.9584    2.2004   50.0115 C.ar    1  ZINC000479580180    0.0800
      8 C8         -2.6148    2.0653   49.6865 C.ar    1  ZINC000479580180   -0.1400
      9 C9         -1.7209    3.0577   50.0369 C.ar    1  ZINC000479580180    0.1300
     10 F10        -0.4145    2.9241   49.7193 F       1  ZINC000479580180   -0.1300
     11 C11        -2.1519    4.1922   50.7126 C.ar    1  ZINC000479580180   -0.1600
     12 C12        -3.4708    4.3424   51.0413 C.ar    1  ZINC000479580180   -0.0400
     13 C13        -4.3881    3.3539   50.6894 C.ar    1  ZINC000479580180   -0.1200
     14 N14        -6.2142    3.5947   53.9060 N.am    1  ZINC000479580180   -0.6200
     15 C15        -5.6887    3.9409   55.2337 C.3     1  ZINC000479580180    0.1100
     16 C16        -6.7483    3.6023   56.2869 C.3     1  ZINC000479580180   -0.1300
     17 C17        -7.1608    2.1361   56.1369 C.3     1  ZINC000479580180   -0.0100
     18 C18        -8.1782    1.7903   57.1935 C.2     1  ZINC000479580180    0.3000
     19 N19        -7.9206    1.2605   58.3599 N.2     1  ZINC000479580180   -0.5300
     20 C20        -9.0610    1.0889   59.0418 C.2     1  ZINC000479580180    0.2700
     21 C21        -9.1754    0.5145   60.4055 C.ar    1  ZINC000479580180   -0.0200
     22 C22       -10.4012    0.5249   61.0677 C.ar    1  ZINC000479580180   -0.0800
     23 C23       -10.5021   -0.0110   62.3356 C.ar    1  ZINC000479580180   -0.1300
     24 C24        -9.3892   -0.5571   62.9491 C.ar    1  ZINC000479580180   -0.1000
     25 C25        -8.1699   -0.5699   62.2960 C.ar    1  ZINC000479580180   -0.1200
     26 C26        -8.0589   -0.0420   61.0257 C.ar    1  ZINC000479580180   -0.0800
     27 N27       -10.0620    1.5142   58.3028 N.2     1  ZINC000479580180   -0.3000
     28 N28        -9.5067    1.9792   57.0997 N.pl3   1  ZINC000479580180   -0.4800
     29 C29        -7.7700    1.9152   54.7505 C.3     1  ZINC000479580180   -0.1400
     30 C30        -6.7275    2.2364   53.6816 C.3     1  ZINC000479580180    0.1200
     31 H31        -7.7525    3.6648   51.6786 H       1  ZINC000479580180    0.1100
     32 H32        -6.8827    5.0379   50.9530 H       1  ZINC000479580180    0.1100
     33 H33        -7.1381    1.5791   50.2879 H       1  ZINC000479580180    0.2100
     34 H34        -2.2703    1.1865   49.1616 H       1  ZINC000479580180    0.1500
     35 H35        -1.4412    4.9602   50.9801 H       1  ZINC000479580180    0.1400
     36 H36        -3.8012    5.2260   51.5672 H       1  ZINC000479580180    0.1300
     37 H37        -4.7828    3.3671   55.4291 H       1  ZINC000479580180    0.0800
     38 H38        -5.4638    5.0067   55.2710 H       1  ZINC000479580180    0.0900
     39 H39        -6.3360    3.7642   57.2829 H       1  ZINC000479580180    0.0900
     40 H40        -7.6196    4.2418   56.1451 H       1  ZINC000479580180    0.0700
     41 H41        -6.2845    1.4986   56.2542 H       1  ZINC000479580180    0.1200
     42 H42       -11.2707    0.9517   60.5900 H       1  ZINC000479580180    0.1400
     43 H43       -11.4518   -0.0036   62.8499 H       1  ZINC000479580180    0.1300
     44 H44        -9.4724   -0.9748   63.9415 H       1  ZINC000479580180    0.1300
     45 H45        -7.3039   -0.9972   62.7798 H       1  ZINC000479580180    0.1300
     46 H46        -7.1064   -0.0528   60.5166 H       1  ZINC000479580180    0.1300
     47 H47        -9.9874    2.3569   56.3465 H       1  ZINC000479580180    0.4400
     48 H48        -8.0848    0.8763   54.6530 H       1  ZINC000479580180    0.0900
     49 H49        -8.6317    2.5704   54.6231 H       1  ZINC000479580180    0.0700
     50 H50        -7.1859    2.1761   52.6944 H       1  ZINC000479580180    0.1000
     51 H51        -5.9043    1.5252   53.7486 H       1  ZINC000479580180    0.0800
@<TRIPOS>BOND
     1     1     2    2
     2     2     3    1
     3     2    14   am
     4     3     4    1
     5     3    31    1
     6     3    32    1
     7     4    13    1
     8     4     5    2
     9     5     6    1
    10     5    33    1
    11     6     7    1
    12     7    13   ar
    13     7     8   ar
    14     8     9   ar
    15     8    34    1
    16     9    10    1
    17     9    11   ar
    18    11    12   ar
    19    11    35    1
    20    12    13   ar
    21    12    36    1
    22    14    30    1
    23    14    15    1
    24    15    16    1
    25    15    37    1
    26    15    38    1
    27    16    17    1
    28    16    39    1
    29    16    40    1
    30    17    18    1
    31    17    29    1
    32    17    41    1
    33    18    28    1
    34    18    19    2
    35    19    20    1
    36    20    21    1
    37    20    27    2
    38    21    26   ar
    39    21    22   ar
    40    22    23   ar
    41    22    42    1
    42    23    24   ar
    43    23    43    1
    44    24    25   ar
    45    24    44    1
    46    25    26   ar
    47    25    45    1
    48    26    46    1
    49    27    28    1
    50    28    47    1
    51    29    30    1
    52    29    48    1
    53    29    49    1
    54    30    50    1
    55    30    51    1
@<TRIPOS>SUBSTRUCTURE
     1 ZINC000479580180        1 TEMP              0 ****  ****    0 ROOT


##########                                Name:    ZINC000151303733
##########                DOCK_Rotatable_Bonds:                   7
##########                         Heavy_Atoms:                  26
##########                    Molecular_Weight:             369.444
##########                DOCK_Rotatable_Bonds:                   7
##########                       Formal_Charge:        -1.93715e-07
##########                     HBond_Acceptors:                   7
##########                        HBond_Donors:                   2
##########                         Heavy_Atoms:                  26
##########                          Grid_Score:          -30.335867
##########                     Grid_vdw_energy:          -30.273521
##########                      Grid_es_energy:           -0.062346
##########           Internal_energy_repulsive:           11.307123

@<TRIPOS>MOLECULE
ZINC000151303733
 45 48 1 0 0
SMALL
USER_CHARGES


@<TRIPOS>ATOM
      1 C1         -3.8671    4.7237   51.0242 C.3     1  ZINC000151303733   -0.1000
      2 C2         -2.9223    3.6294   50.5987 C.2     1  ZINC000151303733   -0.1200
      3 C3         -1.5966    3.7658   50.6501 C.2     1  ZINC000151303733   -0.2000
      4 S4         -0.8262    2.2922   50.0776 S.3     1  ZINC000151303733    0.1200
      5 C5         -2.3929    1.5465   49.7901 C.2     1  ZINC000151303733   -0.2400
      6 C6         -3.3654    2.4008   50.1290 C.2     1  ZINC000151303733    0.1200
      7 N7         -4.7309    2.0821   50.0090 N.am    1  ZINC000151303733   -0.6400
      8 C8         -5.4862    1.9266   51.1143 C.2     1  ZINC000151303733    0.5100
      9 O9         -4.9890    2.0612   52.2126 O.2     1  ZINC000151303733   -0.5100
     10 C10        -6.9484    1.5853   50.9859 C.3     1  ZINC000151303733    0.1000
     11 N11        -7.6631    2.0418   52.1804 N.am    1  ZINC000151303733   -0.7100
     12 C12        -8.2364    1.1445   53.0068 C.2     1  ZINC000151303733    0.5200
     13 O13        -8.1618   -0.0407   52.7606 O.2     1  ZINC000151303733   -0.5100
     14 C14        -8.9701    1.6140   54.2365 C.3     1  ZINC000151303733    0.1600
     15 H15        -9.6228    2.4504   53.9864 H       1  ZINC000151303733    0.1300
     16 C16        -7.9853    2.0257   55.3020 C.ar    1  ZINC000151303733   -0.0900
     17 C17        -7.0021    2.9858   55.3561 C.ar    1  ZINC000151303733   -0.0900
     18 C18        -6.2383    3.1301   56.5026 C.ar    1  ZINC000151303733   -0.0800
     19 C19        -6.4615    2.3107   57.5947 C.ar    1  ZINC000151303733   -0.1200
     20 C20        -7.4453    1.3443   57.5509 C.ar    1  ZINC000151303733   -0.0400
     21 C21        -8.2190    1.1928   56.3991 C.ar    1  ZINC000151303733   -0.1500
     22 C22        -9.3196    0.2724   56.0549 C.2     1  ZINC000151303733    0.5600
     23 O23        -9.7681   -0.5815   56.7946 O.2     1  ZINC000151303733   -0.5100
     24 N24        -9.7564    0.5134   54.8054 N.am    1  ZINC000151303733   -0.5700
     25 C25       -10.8375   -0.2048   54.1260 C.3     1  ZINC000151303733    0.0900
     26 C26       -12.1615   -0.3625   54.8766 C.3     1  ZINC000151303733   -0.1800
     27 C27       -12.0622    0.6050   53.6955 C.3     1  ZINC000151303733   -0.1900
     28 H28        -4.0898    4.6189   52.0861 H       1  ZINC000151303733    0.0700
     29 H29        -3.4041    5.6939   50.8441 H       1  ZINC000151303733    0.0700
     30 H30        -4.7907    4.6497   50.4502 H       1  ZINC000151303733    0.0600
     31 H31        -1.0751    4.6478   50.9911 H       1  ZINC000151303733    0.1700
     32 H32        -2.5464    0.5499   49.4034 H       1  ZINC000151303733    0.2000
     33 H33        -5.1284    1.9743   49.1309 H       1  ZINC000151303733    0.4200
     34 H34        -7.3605    2.0782   50.1054 H       1  ZINC000151303733    0.1100
     35 H35        -7.0621    0.5060   50.8847 H       1  ZINC000151303733    0.1100
     36 H36        -7.7239    2.9898   52.3766 H       1  ZINC000151303733    0.4100
     37 H37        -6.8253    3.6267   54.5049 H       1  ZINC000151303733    0.1300
     38 H38        -5.4662    3.8841   56.5440 H       1  ZINC000151303733    0.1400
     39 H39        -5.8624    2.4279   58.4857 H       1  ZINC000151303733    0.1400
     40 H40        -7.6165    0.7068   58.4059 H       1  ZINC000151303733    0.1400
     41 H41       -10.5240   -1.0249   53.4802 H       1  ZINC000151303733    0.1400
     42 H42       -12.7192   -1.2867   54.7245 H       1  ZINC000151303733    0.1000
     43 H43       -12.2281    0.0680   55.8757 H       1  ZINC000151303733    0.1300
     44 H44       -12.0634    1.6721   53.9176 H       1  ZINC000151303733    0.1000
     45 H45       -12.5545    0.3175   52.7665 H       1  ZINC000151303733    0.1000
@<TRIPOS>BOND
     1     1     2    1
     2     1    28    1
     3     1    29    1
     4     1    30    1
     5     2     6    1
     6     2     3    2
     7     3     4    1
     8     3    31    1
     9     4     5    1
    10     5     6    2
    11     5    32    1
    12     6     7    1
    13     7     8   am
    14     7    33    1
    15     8     9    2
    16     8    10    1
    17    10    11    1
    18    10    34    1
    19    10    35    1
    20    11    12   am
    21    11    36    1
    22    12    13    2
    23    12    14    1
    24    14    15    1
    25    14    24    1
    26    14    16    1
    27    16    21   ar
    28    16    17   ar
    29    17    18   ar
    30    17    37    1
    31    18    19   ar
    32    18    38    1
    33    19    20   ar
    34    19    39    1
    35    20    21   ar
    36    20    40    1
    37    21    22    1
    38    22    23    2
    39    22    24   am
    40    24    25    1
    41    25    27    1
    42    25    26    1
    43    25    41    1
    44    26    27    1
    45    26    42    1
    46    26    43    1
    47    27    44    1
    48    27    45    1
@<TRIPOS>SUBSTRUCTURE
     1 ZINC000151303733        1 TEMP              0 ****  ****    0 ROOT


##########                                Name:    ZINC001067560454
##########                DOCK_Rotatable_Bonds:                   4
##########                         Heavy_Atoms:                  25
##########                    Molecular_Weight:             342.444
##########                DOCK_Rotatable_Bonds:                   4
##########                       Formal_Charge:          0.00999971
##########                     HBond_Acceptors:                   7
##########                        HBond_Donors:                   1
##########                         Heavy_Atoms:                  25
##########                          Grid_Score:          -30.327299
##########                     Grid_vdw_energy:          -30.857706
##########                      Grid_es_energy:            0.530407
##########           Internal_energy_repulsive:           32.723717

@<TRIPOS>MOLECULE
ZINC001067560454
 51 54 1 0 0
SMALL
USER_CHARGES


@<TRIPOS>ATOM
      1 C1         -3.4421    1.8042   49.7422 C.3     1  ZINC001067560454   -0.1500
      2 C2         -2.1576    2.6302   49.6485 C.3     1  ZINC001067560454    0.1000
      3 H3         -2.1605    3.2021   48.7205 H       1  ZINC001067560454    0.0600
      4 C4         -2.0802    3.5894   50.8384 C.3     1  ZINC001067560454   -0.1200
      5 C5         -0.7839    4.3995   50.7512 C.3     1  ZINC001067560454    0.1400
      6 H6         -0.7901    5.0001   49.8415 H       1  ZINC001067560454    0.0900
      7 N7         -0.6770    5.2792   51.9178 N.am    1  ZINC001067560454   -0.7200
      8 C8         -0.6652    4.7541   53.1590 C.2     1  ZINC001067560454    0.5400
      9 O9         -0.7444    3.5534   53.3103 O.2     1  ZINC001067560454   -0.5300
     10 C10        -0.5533    5.6590   54.3590 C.3     1  ZINC001067560454   -0.1100
     11 C11         0.8782    6.1358   54.6122 C.3     1  ZINC001067560454   -0.1300
     12 C12        -1.5938    6.7912   54.3758 C.3     1  ZINC001067560454   -0.1200
     13 C13        -2.5214    5.8214   55.1268 C.3     1  ZINC001067560454   -0.1400
     14 C14        -1.2498    5.1067   55.6140 C.3     1  ZINC001067560454   -0.1200
     15 C15         0.4081    3.4390   50.7221 C.3     1  ZINC001067560454   -0.1200
     16 C16         0.2587    2.4841   49.5355 C.3     1  ZINC001067560454    0.0600
     17 N17        -0.9959    1.7321   49.6660 N.3     1  ZINC001067560454   -0.4900
     18 C18        -1.1006    0.7670   48.6796 C.ar    1  ZINC001067560454    0.4400
     19 C19        -1.3814    1.1252   47.3503 C.ar    1  ZINC001067560454   -0.0800
     20 N20        -1.6024    2.2959   46.7055 N.2     1  ZINC001067560454   -0.4700
     21 C21        -1.8204    2.0612   45.4441 C.2     1  ZINC001067560454    0.2700
     22 N22        -1.7526    0.7215   45.2011 N.pl3   1  ZINC001067560454   -0.4800
     23 C23        -1.9409    0.0649   43.9051 C.3     1  ZINC001067560454    0.0800
     24 C24        -1.4751    0.1009   46.3928 C.ar    1  ZINC001067560454    0.2800
     25 N25        -1.2959   -1.1591   46.7754 N.ar    1  ZINC001067560454   -0.5200
     26 C26        -1.0342   -1.4477   48.0329 C.ar    1  ZINC001067560454    0.3300
     27 N27        -0.9324   -0.5198   48.9667 N.ar    1  ZINC001067560454   -0.5100
     28 H28        -3.4393    1.2322   50.6700 H       1  ZINC001067560454    0.0700
     29 H29        -4.3044    2.4707   49.7287 H       1  ZINC001067560454    0.0700
     30 H30        -3.4975    1.1212   48.8945 H       1  ZINC001067560454    0.0500
     31 H31        -2.9345    4.2661   50.8164 H       1  ZINC001067560454    0.0800
     32 H32        -2.0910    3.0188   51.7671 H       1  ZINC001067560454    0.0800
     33 H33        -0.6148    6.2396   51.7969 H       1  ZINC001067560454    0.4000
     34 H34         1.2963    6.5367   53.6889 H       1  ZINC001067560454    0.0600
     35 H35         0.8724    6.9132   55.3762 H       1  ZINC001067560454    0.0700
     36 H36         1.4858    5.2970   54.9520 H       1  ZINC001067560454    0.0600
     37 H37        -1.2909    7.6537   54.9694 H       1  ZINC001067560454    0.0900
     38 H38        -1.9576    7.0645   53.3853 H       1  ZINC001067560454    0.0700
     39 H39        -3.0907    6.2936   55.9274 H       1  ZINC001067560454    0.0700
     40 H40        -3.1402    5.2114   54.4689 H       1  ZINC001067560454    0.0800
     41 H41        -1.3359    4.0201   55.6230 H       1  ZINC001067560454    0.0800
     42 H42        -0.8528    5.5087   56.5461 H       1  ZINC001067560454    0.0900
     43 H43         1.3317    4.0081   50.6170 H       1  ZINC001067560454    0.0800
     44 H44         0.4365    2.8659   51.6489 H       1  ZINC001067560454    0.0800
     45 H45         0.2442    3.0568   48.6081 H       1  ZINC001067560454    0.0700
     46 H46         1.0985    1.7895   49.5202 H       1  ZINC001067560454    0.0800
     47 H47        -2.0253    2.8163   44.6997 H       1  ZINC001067560454    0.2300
     48 H48        -0.9813   -0.0121   43.3939 H       1  ZINC001067560454    0.0800
     49 H49        -2.3515   -0.9329   44.0596 H       1  ZINC001067560454    0.0900
     50 H50        -2.6301    0.6513   43.2974 H       1  ZINC001067560454    0.0900
     51 H51        -0.8940   -2.4820   48.3105 H       1  ZINC001067560454    0.2100
@<TRIPOS>BOND
     1     1     2    1
     2     1    28    1
     3     1    29    1
     4     1    30    1
     5     2     3    1
     6     2    17    1
     7     2     4    1
     8     4     5    1
     9     4    31    1
    10     4    32    1
    11     5     6    1
    12     5     7    1
    13     5    15    1
    14     7     8   am
    15     7    33    1
    16     8     9    2
    17     8    10    1
    18    10    14    1
    19    10    11    1
    20    10    12    1
    21    11    34    1
    22    11    35    1
    23    11    36    1
    24    12    13    1
    25    12    37    1
    26    12    38    1
    27    13    14    1
    28    13    39    1
    29    13    40    1
    30    14    41    1
    31    14    42    1
    32    15    16    1
    33    15    43    1
    34    15    44    1
    35    16    17    1
    36    16    45    1
    37    16    46    1
    38    17    18    1
    39    18    27   ar
    40    18    19   ar
    41    19    24   ar
    42    19    20    1
    43    20    21    2
    44    21    22    1
    45    21    47    1
    46    22    23    1
    47    22    24    1
    48    23    48    1
    49    23    49    1
    50    23    50    1
    51    24    25   ar
    52    25    26   ar
    53    26    27   ar
    54    26    51    1
@<TRIPOS>SUBSTRUCTURE
     1 ZINC001067560454        1 TEMP              0 ****  ****    0 ROOT


##########                                Name:    ZINC000179211660
##########                DOCK_Rotatable_Bonds:                   6
##########                         Heavy_Atoms:                  23
##########                    Molecular_Weight:             385.208
##########                DOCK_Rotatable_Bonds:                   6
##########                       Formal_Charge:        -1.78814e-07
##########                     HBond_Acceptors:                   6
##########                        HBond_Donors:                   1
##########                         Heavy_Atoms:                  23
##########                          Grid_Score:          -30.306303
##########                     Grid_vdw_energy:          -31.101562
##########                      Grid_es_energy:            0.795259
##########           Internal_energy_repulsive:           14.149565

@<TRIPOS>MOLECULE
ZINC000179211660
 38 39 1 0 0
SMALL
USER_CHARGES


@<TRIPOS>ATOM
      1 C1          2.0192    2.8704   45.1448 C.3     1  ZINC000179211660    0.0300
      2 O2          0.6898    2.3708   45.3031 O.3     1  ZINC000179211660   -0.2700
      3 C3          0.2534    1.4746   44.3792 C.ar    1  ZINC000179211660    0.1500
      4 C4          1.0907    1.0771   43.3473 C.ar    1  ZINC000179211660   -0.2200
      5 C5          0.6448    0.1656   42.4096 C.ar    1  ZINC000179211660   -0.0700
      6 C6         -0.6348   -0.3498   42.4989 C.ar    1  ZINC000179211660   -0.1700
      7 C7         -1.4717    0.0453   43.5264 C.ar    1  ZINC000179211660   -0.0700
      8 C8         -1.0287    0.9516   44.4699 C.ar    1  ZINC000179211660   -0.1500
      9 C9         -1.9410    1.3813   45.5897 C.3     1  ZINC000179211660    0.1800
     10 N10        -1.7249    0.5186   46.7540 N.am    1  ZINC000179211660   -0.6200
     11 C11        -1.0999   -0.7957   46.5859 C.3     1  ZINC000179211660    0.0700
     12 C12        -2.1011    0.9341   47.9796 C.2     1  ZINC000179211660    0.7000
     13 O13        -1.9204    0.2188   48.9461 O.2     1  ZINC000179211660   -0.5300
     14 N14        -2.6775    2.1426   48.1340 N.am    1  ZINC000179211660   -0.6800
     15 C15        -3.0686    2.5746   49.4081 C.ar    1  ZINC000179211660    0.1900
     16 C16        -4.3419    2.2873   49.8787 C.ar    1  ZINC000179211660   -0.1400
     17 C17        -4.7256    2.7147   51.1377 C.ar    1  ZINC000179211660    0.1500
     18 F18        -5.9652    2.4353   51.5966 F       1  ZINC000179211660   -0.1100
     19 C19        -3.8395    3.4283   51.9279 C.ar    1  ZINC000179211660   -0.1300
     20 Br20       -4.3669    4.0103   53.6482 Br      1  ZINC000179211660   -0.0100
     21 C21        -2.5691    3.7156   51.4609 C.ar    1  ZINC000179211660   -0.0700
     22 C22        -2.1795    3.2870   50.2055 C.ar    1  ZINC000179211660    0.0600
     23 F23        -0.9389    3.5678   49.7502 F       1  ZINC000179211660   -0.1300
     24 H24         2.2405    3.5749   45.9466 H       1  ZINC000179211660    0.1000
     25 H25         2.7259    2.0415   45.1840 H       1  ZINC000179211660    0.0500
     26 H26         2.1052    3.3760   44.1830 H       1  ZINC000179211660    0.0500
     27 H27         2.0903    1.4800   43.2767 H       1  ZINC000179211660    0.1300
     28 H28         1.2964   -0.1441   41.6059 H       1  ZINC000179211660    0.1200
     29 H29        -0.9817   -1.0618   41.7647 H       1  ZINC000179211660    0.1200
     30 H30        -2.4711   -0.3585   43.5939 H       1  ZINC000179211660    0.1300
     31 H31        -1.7243    2.4152   45.8584 H       1  ZINC000179211660    0.0900
     32 H32        -2.9782    1.3001   45.2649 H       1  ZINC000179211660    0.1000
     33 H33        -0.0187   -0.6993   46.6852 H       1  ZINC000179211660    0.0600
     34 H34        -1.4756   -1.4769   47.3492 H       1  ZINC000179211660    0.0600
     35 H35        -1.3404   -1.1887   45.5980 H       1  ZINC000179211660    0.0800
     36 H36        -2.8217    2.7132   47.3630 H       1  ZINC000179211660    0.4100
     37 H37        -5.0329    1.7309   49.2630 H       1  ZINC000179211660    0.1800
     38 H38        -1.8802    4.2721   52.0790 H       1  ZINC000179211660    0.1600
@<TRIPOS>BOND
     1     1     2    1
     2     1    24    1
     3     1    25    1
     4     1    26    1
     5     2     3    1
     6     3     8   ar
     7     3     4   ar
     8     4     5   ar
     9     4    27    1
    10     5     6   ar
    11     5    28    1
    12     6     7   ar
    13     6    29    1
    14     7     8   ar
    15     7    30    1
    16     8     9    1
    17     9    10    1
    18     9    31    1
    19     9    32    1
    20    10    11    1
    21    10    12   am
    22    11    33    1
    23    11    34    1
    24    11    35    1
    25    12    13    2
    26    12    14   am
    27    14    15    1
    28    14    36    1
    29    15    22   ar
    30    15    16   ar
    31    16    17   ar
    32    16    37    1
    33    17    18    1
    34    17    19   ar
    35    19    20    1
    36    19    21   ar
    37    21    22   ar
    38    21    38    1
    39    22    23    1
@<TRIPOS>SUBSTRUCTURE
     1 ZINC000179211660        1 TEMP              0 ****  ****    0 ROOT


##########                                Name:    ZINC000301324012
##########                DOCK_Rotatable_Bonds:                   7
##########                         Heavy_Atoms:                  28
##########                    Molecular_Weight:               415.9
##########                DOCK_Rotatable_Bonds:                   7
##########                       Formal_Charge:          -0.0100002
##########                     HBond_Acceptors:                   8
##########                        HBond_Donors:                   2
##########                         Heavy_Atoms:                  28
##########                          Grid_Score:          -30.302582
##########                     Grid_vdw_energy:          -29.822708
##########                      Grid_es_energy:           -0.479874
##########           Internal_energy_repulsive:           10.867770

@<TRIPOS>MOLECULE
ZINC000301324012
 46 48 1 0 0
SMALL
USER_CHARGES


@<TRIPOS>ATOM
      1 C1         -0.8644    0.4295   47.6865 C.3     1  ZINC000301324012   -0.1600
      2 C2         -0.9985    1.6593   48.5869 C.3     1  ZINC000301324012    0.2000
      3 H3         -1.0557    2.5564   47.9704 H       1  ZINC000301324012    0.1100
      4 N4         -2.2155    1.5431   49.3941 N.am    1  ZINC000301324012   -0.7100
      5 C5         -2.7893    2.6476   49.9110 C.2     1  ZINC000301324012    0.5500
      6 O6         -2.2979    3.7404   49.7062 O.2     1  ZINC000301324012   -0.5300
      7 C7         -4.0164    2.5301   50.7272 C.ar    1  ZINC000301324012   -0.0700
      8 C8         -5.0645    1.7116   50.3033 C.ar    1  ZINC000301324012   -0.1100
      9 C9         -6.2066    1.6060   51.0697 C.ar    1  ZINC000301324012   -0.0200
     10 C10        -6.3147    2.3096   52.2561 C.ar    1  ZINC000301324012   -0.6600
     11 S11        -7.7772    2.1694   53.2289 S.o2    1  ZINC000301324012    2.6900
     12 O12        -8.5136    1.0794   52.6914 O.2     1  ZINC000301324012   -0.9400
     13 O13        -7.3634    2.2335   54.5868 O.2     1  ZINC000301324012   -0.9400
     14 N14        -8.6827    3.5278   52.9514 N.am    1  ZINC000301324012   -1.0500
     15 C15        -9.1239    3.8212   51.6582 C.ar    1  ZINC000301324012    0.1600
     16 C16       -10.2317    3.1673   51.1357 C.ar    1  ZINC000301324012   -0.1600
     17 C17       -10.6653    3.4596   49.8569 C.ar    1  ZINC000301324012   -0.0800
     18 C18        -9.9975    4.4019   49.0969 C.ar    1  ZINC000301324012   -0.1200
     19 C19        -8.8935    5.0558   49.6136 C.ar    1  ZINC000301324012   -0.0900
     20 C20        -8.4580    4.7728   50.8940 C.ar    1  ZINC000301324012   -0.0600
     21 Cl21       -7.0724    5.5936   51.5420 Cl      1  ZINC000301324012   -0.0600
     22 C22        -5.2792    3.1224   52.6824 C.ar    1  ZINC000301324012   -0.0200
     23 C23        -4.1296    3.2327   51.9279 C.ar    1  ZINC000301324012   -0.0800
     24 C24         0.2004    1.7498   49.4954 C.ar    1  ZINC000301324012    0.1200
     25 C25         0.5673    0.6540   50.2530 C.ar    1  ZINC000301324012   -0.1600
     26 C26         1.6724    0.7476   51.0856 C.ar    1  ZINC000301324012   -0.0700
     27 C27         2.3696    1.9452   51.1245 C.ar    1  ZINC000301324012   -0.1700
     28 C28         1.9432    2.9987   50.3379 C.ar    1  ZINC000301324012    0.1100
     29 N29         0.8904    2.8722   49.5540 N.ar    1  ZINC000301324012   -0.4900
     30 H30         0.0410    0.5159   47.0858 H       1  ZINC000301324012    0.0700
     31 H31        -0.8073   -0.4676   48.3030 H       1  ZINC000301324012    0.0600
     32 H32        -1.7316    0.3640   47.0293 H       1  ZINC000301324012    0.0700
     33 H33        -2.6082    0.6712   49.5567 H       1  ZINC000301324012    0.4100
     34 H34        -4.9816    1.1624   49.3769 H       1  ZINC000301324012    0.1400
     35 H35        -7.0183    0.9730   50.7428 H       1  ZINC000301324012    0.1500
     36 H36        -8.9069    4.1198   53.6863 H       1  ZINC000301324012    0.4300
     37 H37       -10.7536    2.4305   51.7282 H       1  ZINC000301324012    0.1700
     38 H38       -11.5269    2.9511   49.4502 H       1  ZINC000301324012    0.1400
     39 H39       -10.3385    4.6278   48.0974 H       1  ZINC000301324012    0.1400
     40 H40        -8.3742    5.7913   49.0172 H       1  ZINC000301324012    0.1400
     41 H41        -5.3698    3.6686   53.6097 H       1  ZINC000301324012    0.1500
     42 H42        -3.3219    3.8672   52.2619 H       1  ZINC000301324012    0.1500
     43 H43         0.0004   -0.2636   50.1979 H       1  ZINC000301324012    0.1400
     44 H44         1.9823   -0.0925   51.6895 H       1  ZINC000301324012    0.1400
     45 H45         3.2348    2.0537   51.7618 H       1  ZINC000301324012    0.1400
     46 H46         2.4806    3.9351   50.3628 H       1  ZINC000301324012    0.1600
@<TRIPOS>BOND
     1     1     2    1
     2     1    30    1
     3     1    31    1
     4     1    32    1
     5     2     3    1
     6     2     4    1
     7     2    24    1
     8     4     5   am
     9     4    33    1
    10     5     6    2
    11     5     7    1
    12     7    23   ar
    13     7     8   ar
    14     8     9   ar
    15     8    34    1
    16     9    10   ar
    17     9    35    1
    18    10    11    1
    19    10    22   ar
    20    11    12    2
    21    11    13    2
    22    11    14   am
    23    14    15    1
    24    14    36    1
    25    15    20   ar
    26    15    16   ar
    27    16    17   ar
    28    16    37    1
    29    17    18   ar
    30    17    38    1
    31    18    19   ar
    32    18    39    1
    33    19    20   ar
    34    19    40    1
    35    20    21    1
    36    22    23   ar
    37    22    41    1
    38    23    42    1
    39    24    29   ar
    40    24    25   ar
    41    25    26   ar
    42    25    43    1
    43    26    27   ar
    44    26    44    1
    45    27    28   ar
    46    27    45    1
    47    28    29   ar
    48    28    46    1
@<TRIPOS>SUBSTRUCTURE
     1 ZINC000301324012        1 TEMP              0 ****  ****    0 ROOT


##########                                Name:    ZINC001011267435
##########                DOCK_Rotatable_Bonds:                   7
##########                         Heavy_Atoms:                  24
##########                    Molecular_Weight:             331.458
##########                DOCK_Rotatable_Bonds:                   7
##########                       Formal_Charge:        -4.47035e-08
##########                     HBond_Acceptors:                   5
##########                        HBond_Donors:                   0
##########                         Heavy_Atoms:                  24
##########                          Grid_Score:          -30.268375
##########                     Grid_vdw_energy:          -30.382376
##########                      Grid_es_energy:            0.114001
##########           Internal_energy_repulsive:           42.873138

@<TRIPOS>MOLECULE
ZINC001011267435
 53 54 1 0 0
SMALL
USER_CHARGES


@<TRIPOS>ATOM
      1 C1          0.3314    2.3556   44.9594 C.3     1  ZINC001011267435   -0.1500
      2 C2         -0.2672    1.0989   44.3244 C.3     1  ZINC001011267435   -0.1200
      3 C3         -1.6204    0.7960   44.9709 C.3     1  ZINC001011267435   -0.0700
      4 C4         -1.4318    0.5709   46.4490 C.ar    1  ZINC001011267435    0.1300
      5 C5         -1.6430    1.6142   47.3293 C.ar    1  ZINC001011267435   -0.1200
      6 C6         -1.4648    1.3926   48.6985 C.ar    1  ZINC001011267435   -0.0800
      7 C7         -1.6802    2.4810   49.6802 C.2     1  ZINC001011267435    0.5600
      8 O8         -0.7345    2.9584   50.2755 O.2     1  ZINC001011267435   -0.5200
      9 N9         -2.9253    2.9417   49.9132 N.am    1  ZINC001011267435   -0.6100
     10 C10        -4.0790    2.3696   49.2051 C.3     1  ZINC001011267435    0.0700
     11 C11        -5.1034    1.8929   50.2423 C.3     1  ZINC001011267435    0.1000
     12 N12        -5.3315    2.9759   51.2092 N.am    1  ZINC001011267435   -0.6200
     13 C13        -6.5766    3.4360   51.4428 C.2     1  ZINC001011267435    0.5300
     14 O14        -7.5211    2.9557   50.8528 O.2     1  ZINC001011267435   -0.5300
     15 C15        -6.7952    4.5471   52.4371 C.3     1  ZINC001011267435   -0.1100
     16 H16        -6.0249    5.3073   52.3076 H       1  ZINC001011267435    0.0900
     17 C17        -6.7209    3.9826   53.8573 C.3     1  ZINC001011267435   -0.1500
     18 C18        -8.1726    5.1726   52.2084 C.3     1  ZINC001011267435   -0.0800
     19 C19        -8.3945    6.3006   53.2179 C.3     1  ZINC001011267435   -0.1500
     20 C20        -8.2467    5.7372   50.7883 C.3     1  ZINC001011267435   -0.1500
     21 C21        -4.1776    3.5480   51.9173 C.3     1  ZINC001011267435    0.0900
     22 C22        -3.1540    4.0208   50.8842 C.3     1  ZINC001011267435    0.1000
     23 C23        -1.0781    0.1154   49.1152 C.ar    1  ZINC001011267435   -0.1600
     24 C24        -0.8887   -0.8702   48.1656 C.ar    1  ZINC001011267435    0.1100
     25 N25        -1.0728   -0.6202   46.8848 N.ar    1  ZINC001011267435   -0.4600
     26 H26        -0.3426    3.1979   44.8032 H       1  ZINC001011267435    0.0600
     27 H27         0.4679    2.1928   46.0284 H       1  ZINC001011267435    0.0500
     28 H28         1.2955    2.5714   44.4987 H       1  ZINC001011267435    0.0600
     29 H29        -0.4037    1.2617   43.2553 H       1  ZINC001011267435    0.0700
     30 H30         0.4068    0.2566   44.4806 H       1  ZINC001011267435    0.0600
     31 H31        -2.2944    1.6383   44.8147 H       1  ZINC001011267435    0.0800
     32 H32        -2.0469   -0.0993   44.5186 H       1  ZINC001011267435    0.0900
     33 H33        -1.9410    2.5865   46.9656 H       1  ZINC001011267435    0.1400
     34 H34        -4.5307    3.1297   48.5676 H       1  ZINC001011267435    0.0800
     35 H35        -3.7535    1.5253   48.5976 H       1  ZINC001011267435    0.1100
     36 H36        -6.0403    1.6443   49.7438 H       1  ZINC001011267435    0.1100
     37 H37        -4.7177    1.0150   50.7607 H       1  ZINC001011267435    0.0700
     38 H38        -6.9608    4.7683   54.5736 H       1  ZINC001011267435    0.0800
     39 H39        -7.4351    3.1657   53.9613 H       1  ZINC001011267435    0.0600
     40 H40        -5.7141    3.6115   54.0486 H       1  ZINC001011267435    0.0600
     41 H41        -8.9429    4.4124   52.3378 H       1  ZINC001011267435    0.0800
     42 H42        -9.3758    6.7463   53.0549 H       1  ZINC001011267435    0.0600
     43 H43        -8.3416    5.8984   54.2296 H       1  ZINC001011267435    0.0600
     44 H44        -7.6242    7.0608   53.0884 H       1  ZINC001011267435    0.0600
     45 H45        -8.0886    4.9336   50.0690 H       1  ZINC001011267435    0.0600
     46 H46        -9.2280    6.1829   50.6253 H       1  ZINC001011267435    0.0600
     47 H47        -7.4763    6.4975   50.6588 H       1  ZINC001011267435    0.0500
     48 H48        -4.5031    4.3924   52.5248 H       1  ZINC001011267435    0.1000
     49 H49        -3.7261    2.7879   52.5548 H       1  ZINC001011267435    0.0800
     50 H50        -2.2177    4.2692   51.3841 H       1  ZINC001011267435    0.1100
     51 H51        -3.5378    4.8985   50.3640 H       1  ZINC001011267435    0.0800
     52 H52        -0.9293   -0.0975   50.1635 H       1  ZINC001011267435    0.1500
     53 H53        -0.5896   -1.8600   48.4776 H       1  ZINC001011267435    0.1700
@<TRIPOS>BOND
     1     1     2    1
     2     1    26    1
     3     1    27    1
     4     1    28    1
     5     2     3    1
     6     2    29    1
     7     2    30    1
     8     3     4    1
     9     3    31    1
    10     3    32    1
    11     4    25   ar
    12     4     5   ar
    13     5     6   ar
    14     5    33    1
    15     6     7    1
    16     6    23   ar
    17     7     8    2
    18     7     9   am
    19     9    22    1
    20     9    10    1
    21    10    11    1
    22    10    34    1
    23    10    35    1
    24    11    12    1
    25    11    36    1
    26    11    37    1
    27    12    13   am
    28    12    21    1
    29    13    14    2
    30    13    15    1
    31    15    16    1
    32    15    17    1
    33    15    18    1
    34    17    38    1
    35    17    39    1
    36    17    40    1
    37    18    19    1
    38    18    20    1
    39    18    41    1
    40    19    42    1
    41    19    43    1
    42    19    44    1
    43    20    45    1
    44    20    46    1
    45    20    47    1
    46    21    22    1
    47    21    48    1
    48    21    49    1
    49    22    50    1
    50    22    51    1
    51    23    24   ar
    52    23    52    1
    53    24    25   ar
    54    24    53    1
@<TRIPOS>SUBSTRUCTURE
     1 ZINC001011267435        1 TEMP              0 ****  ****    0 ROOT


##########                                Name:    ZINC000129637895
##########                DOCK_Rotatable_Bonds:                   7
##########                         Heavy_Atoms:                  26
##########                    Molecular_Weight:             374.464
##########                DOCK_Rotatable_Bonds:                   7
##########                       Formal_Charge:        -5.51343e-07
##########                     HBond_Acceptors:                   8
##########                        HBond_Donors:                   1
##########                         Heavy_Atoms:                  26
##########                          Grid_Score:          -30.231075
##########                     Grid_vdw_energy:          -29.681650
##########                      Grid_es_energy:           -0.549425
##########           Internal_energy_repulsive:           16.215837

@<TRIPOS>MOLECULE
ZINC000129637895
 48 50 1 0 0
SMALL
USER_CHARGES


@<TRIPOS>ATOM
      1 C1         -8.8783    1.6201   57.6598 C.3     1  ZINC000129637895   -0.1500
      2 C2         -7.7835    1.5408   56.5939 C.3     1  ZINC000129637895   -0.0500
      3 C3         -8.3022    0.7874   55.3963 C.2     1  ZINC000129637895    0.0300
      4 C4         -7.8501    1.0013   54.1476 C.2     1  ZINC000129637895   -0.0200
      5 N5         -6.8675    1.9180   53.7760 N.am    1  ZINC000129637895   -0.5900
      6 C6         -7.2054    3.0254   53.0860 C.2     1  ZINC000129637895    0.5000
      7 O7         -8.3656    3.2253   52.7893 O.2     1  ZINC000129637895   -0.4800
      8 C8         -6.1532    4.0058   52.6866 C.2     1  ZINC000129637895    0.5200
      9 O9         -5.8976    4.9487   53.4067 O.2     1  ZINC000129637895   -0.5100
     10 N10        -5.4869    3.8439   51.5263 N.am    1  ZINC000129637895   -0.5800
     11 C11        -4.4423    4.7948   51.1168 C.3     1  ZINC000129637895    0.0800
     12 C12        -3.1804    4.0050   50.7534 C.3     1  ZINC000129637895    0.0400
     13 N13        -3.5172    2.9833   49.7530 N.3     1  ZINC000129637895   -0.4900
     14 C14        -2.3665    2.3517   49.2757 C.ar    1  ZINC000129637895    0.1500
     15 C15        -2.3447    1.8245   47.9904 C.ar    1  ZINC000129637895   -0.2100
     16 C16        -1.2062    1.2002   47.5183 C.ar    1  ZINC000129637895   -0.0500
     17 C17        -0.0872    1.0980   48.3225 C.ar    1  ZINC000129637895   -0.2300
     18 C18        -0.1033    1.6228   49.6075 C.ar    1  ZINC000129637895    0.1500
     19 O19         0.9983    1.5217   50.3969 O.3     1  ZINC000129637895   -0.3200
     20 C20         2.1085    2.3607   50.0720 C.3     1  ZINC000129637895    0.0300
     21 C21        -1.2412    2.2547   50.0828 C.ar    1  ZINC000129637895   -0.1700
     22 C22        -4.4704    2.0040   50.2915 C.3     1  ZINC000129637895    0.0400
     23 C23        -5.7809    2.7084   50.6389 C.3     1  ZINC000129637895    0.1100
     24 S24        -8.7195   -0.0837   53.0652 S.3     1  ZINC000129637895    0.2400
     25 C25        -9.5997   -0.7142   54.3882 C.2     1  ZINC000129637895   -0.0300
     26 N26        -9.2335   -0.1409   55.4840 N.2     1  ZINC000129637895   -0.4500
     27 H27        -9.7457    2.1390   57.2519 H       1  ZINC000129637895    0.0600
     28 H28        -9.1659    0.6128   57.9610 H       1  ZINC000129637895    0.0500
     29 H29        -8.5030    2.1650   58.5261 H       1  ZINC000129637895    0.0700
     30 H30        -7.4959    2.5481   56.2929 H       1  ZINC000129637895    0.0900
     31 H31        -6.9161    1.0219   57.0018 H       1  ZINC000129637895    0.0700
     32 H32        -5.9408    1.7588   54.0141 H       1  ZINC000129637895    0.4300
     33 H33        -4.7822    5.3611   50.2496 H       1  ZINC000129637895    0.0900
     34 H34        -4.2238    5.4757   51.9395 H       1  ZINC000129637895    0.1400
     35 H35        -2.4324    4.6833   50.3430 H       1  ZINC000129637895    0.1000
     36 H36        -2.7834    3.5225   51.6465 H       1  ZINC000129637895    0.0500
     37 H37        -3.2182    1.9025   47.3601 H       1  ZINC000129637895    0.1300
     38 H38        -1.1909    0.7910   46.5190 H       1  ZINC000129637895    0.1300
     39 H39         0.8010    0.6087   47.9509 H       1  ZINC000129637895    0.1300
     40 H40         2.4505    2.1359   49.0619 H       1  ZINC000129637895    0.0600
     41 H41         1.8029    3.4055   50.1281 H       1  ZINC000129637895    0.0600
     42 H42         2.9188    2.1808   50.7785 H       1  ZINC000129637895    0.1000
     43 H43        -1.2553    2.6639   51.0822 H       1  ZINC000129637895    0.1300
     44 H44        -4.6578    1.2310   49.5463 H       1  ZINC000129637895    0.1000
     45 H45        -4.0555    1.5493   51.1912 H       1  ZINC000129637895    0.0500
     46 H46        -6.4490    2.0106   51.1437 H       1  ZINC000129637895    0.1100
     47 H47        -6.2518    3.0761   49.7273 H       1  ZINC000129637895    0.0900
     48 H48       -10.3520   -1.4858   54.3171 H       1  ZINC000129637895    0.2000
@<TRIPOS>BOND
     1     1     2    1
     2     1    27    1
     3     1    28    1
     4     1    29    1
     5     2     3    1
     6     2    30    1
     7     2    31    1
     8     3    26    1
     9     3     4    2
    10     4     5    1
    11     4    24    1
    12     5     6   am
    13     5    32    1
    14     6     7    2
    15     6     8    1
    16     8     9    2
    17     8    10   am
    18    10    23    1
    19    10    11    1
    20    11    12    1
    21    11    33    1
    22    11    34    1
    23    12    13    1
    24    12    35    1
    25    12    36    1
    26    13    14    1
    27    13    22    1
    28    14    21   ar
    29    14    15   ar
    30    15    16   ar
    31    15    37    1
    32    16    17   ar
    33    16    38    1
    34    17    18   ar
    35    17    39    1
    36    18    19    1
    37    18    21   ar
    38    19    20    1
    39    20    40    1
    40    20    41    1
    41    20    42    1
    42    21    43    1
    43    22    23    1
    44    22    44    1
    45    22    45    1
    46    23    46    1
    47    23    47    1
    48    24    25    1
    49    25    26    2
    50    25    48    1
@<TRIPOS>SUBSTRUCTURE
     1 ZINC000129637895        1 TEMP              0 ****  ****    0 ROOT


##########                                Name:    ZINC000811540126
##########                DOCK_Rotatable_Bonds:                   7
##########                         Heavy_Atoms:                  21
##########                    Molecular_Weight:             397.212
##########                DOCK_Rotatable_Bonds:                   7
##########                       Formal_Charge:           0.0100001
##########                     HBond_Acceptors:                   4
##########                        HBond_Donors:                   3
##########                         Heavy_Atoms:                  21
##########                          Grid_Score:          -30.211721
##########                     Grid_vdw_energy:          -29.028477
##########                      Grid_es_energy:           -1.183245
##########           Internal_energy_repulsive:            8.266429

@<TRIPOS>MOLECULE
ZINC000811540126
 37 38 1 0 0
SMALL
USER_CHARGES


@<TRIPOS>ATOM
      1 C1         -0.7179   -1.1886   48.3848 C.3     1  ZINC000811540126   -0.1600
      2 C2         -1.0299    0.2890   48.1383 C.3     1  ZINC000811540126    0.1200
      3 H3         -1.6924    0.3818   47.2778 H       1  ZINC000811540126    0.1000
      4 N4         -1.6837    0.8540   49.3213 N.am    1  ZINC000811540126   -0.7200
      5 C5         -2.7463    1.6708   49.1784 C.2     1  ZINC000811540126    0.5700
      6 O6         -3.1630    1.9374   48.0678 O.2     1  ZINC000811540126   -0.5100
      7 C7         -3.4036    2.2412   50.3696 C.ar    1  ZINC000811540126   -0.1600
      8 C8         -4.6170    1.7170   50.8210 C.ar    1  ZINC000811540126   -0.0400
      9 C9         -5.2262    2.2547   51.9349 C.ar    1  ZINC000811540126   -0.1200
     10 I10        -7.0462    1.4674   52.6105 I       1  ZINC000811540126   -0.0300
     11 C11        -4.6397    3.3132   52.6096 C.ar    1  ZINC000811540126   -0.0400
     12 C12        -3.4404    3.8409   52.1735 C.ar    1  ZINC000811540126   -0.1500
     13 C13        -2.8111    3.3087   51.0585 C.ar    1  ZINC000811540126    0.1900
     14 O14        -1.6327    3.8259   50.6293 O.3     1  ZINC000811540126   -0.4700
     15 C15         0.2712    1.0460   47.8644 C.3     1  ZINC000811540126    0.1400
     16 H16         1.0643    0.6459   48.4960 H       1  ZINC000811540126    0.1300
     17 O17         0.0855    2.4329   48.1540 O.3     1  ZINC000811540126   -0.5400
     18 C18         0.6522    0.8821   46.4155 C.ar    1  ZINC000811540126   -0.1200
     19 C19        -0.2628    1.1777   45.4226 C.ar    1  ZINC000811540126   -0.1100
     20 C20         0.0866    1.0274   44.0936 C.ar    1  ZINC000811540126   -0.1100
     21 C21         1.3514    0.5817   43.7576 C.ar    1  ZINC000811540126   -0.1200
     22 C22         2.2667    0.2867   44.7507 C.ar    1  ZINC000811540126   -0.1100
     23 C23         1.9186    0.4413   46.0795 C.ar    1  ZINC000811540126   -0.1100
     24 H24        -1.6448   -1.7279   48.5800 H       1  ZINC000811540126    0.0600
     25 H25        -0.2314   -1.6088   47.5047 H       1  ZINC000811540126    0.0700
     26 H26        -0.0554   -1.2814   49.2453 H       1  ZINC000811540126    0.0700
     27 H27        -1.3520    0.6402   50.2074 H       1  ZINC000811540126    0.3900
     28 H28        -5.0776    0.8919   50.2979 H       1  ZINC000811540126    0.1300
     29 H29        -5.1234    3.7282   53.4815 H       1  ZINC000811540126    0.1400
     30 H30        -2.9896    4.6663   52.7045 H       1  ZINC000811540126    0.1500
     31 H31        -1.5233    4.7674   50.8208 H       1  ZINC000811540126    0.4000
     32 H32         0.0842    2.6408   49.0983 H       1  ZINC000811540126    0.3700
     33 H33        -1.2509    1.5260   45.6850 H       1  ZINC000811540126    0.1100
     34 H34        -0.6285    1.2578   43.3177 H       1  ZINC000811540126    0.1200
     35 H35         1.6242    0.4635   42.7194 H       1  ZINC000811540126    0.1200
     36 H36         3.2547   -0.0618   44.4882 H       1  ZINC000811540126    0.1300
     37 H37         2.6337    0.2109   46.8554 H       1  ZINC000811540126    0.1200
@<TRIPOS>BOND
     1     1     2    1
     2     1    24    1
     3     1    25    1
     4     1    26    1
     5     2     3    1
     6     2     4    1
     7     2    15    1
     8     4     5   am
     9     4    27    1
    10     5     6    2
    11     5     7    1
    12     7    13   ar
    13     7     8   ar
    14     8     9   ar
    15     8    28    1
    16     9    10    1
    17     9    11   ar
    18    11    12   ar
    19    11    29    1
    20    12    13   ar
    21    12    30    1
    22    13    14    1
    23    14    31    1
    24    15    16    1
    25    15    17    1
    26    15    18    1
    27    17    32    1
    28    18    23   ar
    29    18    19   ar
    30    19    20   ar
    31    19    33    1
    32    20    21   ar
    33    20    34    1
    34    21    22   ar
    35    21    35    1
    36    22    23   ar
    37    22    36    1
    38    23    37    1
@<TRIPOS>SUBSTRUCTURE
     1 ZINC000811540126        1 TEMP              0 ****  ****    0 ROOT


##########                                Name:    ZINC000939075213
##########                DOCK_Rotatable_Bonds:                   7
##########                         Heavy_Atoms:                  24
##########                    Molecular_Weight:             327.426
##########                DOCK_Rotatable_Bonds:                   7
##########                       Formal_Charge:          -0.0200002
##########                     HBond_Acceptors:                   5
##########                        HBond_Donors:                   2
##########                         Heavy_Atoms:                  24
##########                          Grid_Score:          -30.211281
##########                     Grid_vdw_energy:          -29.888210
##########                      Grid_es_energy:           -0.323070
##########           Internal_energy_repulsive:           10.145148

@<TRIPOS>MOLECULE
ZINC000939075213
 49 51 1 0 0
SMALL
USER_CHARGES


@<TRIPOS>ATOM
      1 C1         -0.0105    3.0791   50.4934 C.3     1  ZINC000939075213   -0.1400
      2 C2         -1.3784    3.5557   50.0010 C.3     1  ZINC000939075213   -0.1100
      3 H3         -1.2698    4.2932   49.2057 H       1  ZINC000939075213    0.0900
      4 C4         -2.2236    4.1201   51.1700 C.3     1  ZINC000939075213    0.1100
      5 N5         -3.6231    3.9612   50.7349 N.am    1  ZINC000939075213   -0.6200
      6 C6         -4.6695    4.6887   51.1736 C.2     1  ZINC000939075213    0.5600
      7 O7         -4.4976    5.5645   52.0021 O.2     1  ZINC000939075213   -0.5400
      8 C8         -5.9680    4.4347   50.6714 C.2     1  ZINC000939075213   -0.2600
      9 C9         -7.0151    5.1902   51.0862 C.2     1  ZINC000939075213    0.0400
     10 C10        -8.3151    4.9361   50.5837 C.2     1  ZINC000939075213    0.0000
     11 C11        -9.4660    5.6326   50.9034 C.2     1  ZINC000939075213   -0.1500
     12 C12       -10.5125    5.0488   50.1834 C.2     1  ZINC000939075213   -0.2200
     13 C13        -9.9982    4.0299   49.4530 C.2     1  ZINC000939075213    0.0200
     14 N14        -8.6625    3.9542   49.6831 N.pl3   1  ZINC000939075213   -0.5000
     15 C15        -3.6883    2.8783   49.7426 C.3     1  ZINC000939075213    0.0900
     16 C16        -2.2494    2.3593   49.5348 C.3     1  ZINC000939075213    0.1400
     17 H17        -2.0625    1.4824   50.1547 H       1  ZINC000939075213    0.1100
     18 N18        -2.0072    2.0545   48.1225 N.am    1  ZINC000939075213   -0.7200
     19 C19        -1.1935    1.0353   47.7830 C.2     1  ZINC000939075213    0.5300
     20 O20        -0.6604    0.3713   48.6466 O.2     1  ZINC000939075213   -0.5300
     21 C21        -0.9458    0.7207   46.3301 C.3     1  ZINC000939075213   -0.0600
     22 C22         0.4070    1.2819   45.8874 C.3     1  ZINC000939075213   -0.1300
     23 C23        -1.0009   -0.7713   46.0978 C.2     1  ZINC000939075213   -0.1700
     24 C24        -1.6960   -1.0553   45.0301 C.2     1  ZINC000939075213   -0.1400
     25 C25        -2.2203    0.1999   44.3724 C.3     1  ZINC000939075213   -0.1100
     26 C26        -2.0812    1.2974   45.4529 C.3     1  ZINC000939075213   -0.1100
     27 H27         0.5305    2.6138   49.6693 H       1  ZINC000939075213    0.0600
     28 H28         0.5584    3.9308   50.8665 H       1  ZINC000939075213    0.0700
     29 H29        -0.1456    2.3532   51.2951 H       1  ZINC000939075213    0.0600
     30 H30        -2.0419    3.5484   52.0801 H       1  ZINC000939075213    0.0700
     31 H31        -1.9934    5.1734   51.3305 H       1  ZINC000939075213    0.0800
     32 H32        -6.1251    3.6393   49.9579 H       1  ZINC000939075213    0.1300
     33 H33        -6.8579    5.9856   51.7997 H       1  ZINC000939075213    0.1500
     34 H34        -9.5423    6.4695   51.5817 H       1  ZINC000939075213    0.1400
     35 H35       -11.5477    5.3556   50.2055 H       1  ZINC000939075213    0.1400
     36 H36       -10.5592    3.3853   48.7925 H       1  ZINC000939075213    0.1600
     37 H37        -8.0551    3.3118   49.2840 H       1  ZINC000939075213    0.4100
     38 H38        -4.3232    2.0735   50.1134 H       1  ZINC000939075213    0.0800
     39 H39        -4.0831    3.2612   48.8015 H       1  ZINC000939075213    0.0700
     40 H40        -2.4326    2.5863   47.4317 H       1  ZINC000939075213    0.4000
     41 H41         1.1985    0.8449   46.4963 H       1  ZINC000939075213    0.0600
     42 H42         0.5771    1.0359   44.8394 H       1  ZINC000939075213    0.0700
     43 H43         0.4093    2.3648   46.0115 H       1  ZINC000939075213    0.0600
     44 H44        -0.5271   -1.5062   46.7316 H       1  ZINC000939075213    0.1300
     45 H45        -1.8728   -2.0560   44.6646 H       1  ZINC000939075213    0.1300
     46 H46        -1.6195    0.4498   43.4978 H       1  ZINC000939075213    0.0800
     47 H47        -3.2660    0.0734   44.0922 H       1  ZINC000939075213    0.0800
     48 H48        -3.0031    1.4021   46.0252 H       1  ZINC000939075213    0.0900
     49 H49        -1.7880    2.2486   45.0089 H       1  ZINC000939075213    0.0800
@<TRIPOS>BOND
     1     1     2    1
     2     1    27    1
     3     1    28    1
     4     1    29    1
     5     2     3    1
     6     2    16    1
     7     2     4    1
     8     4     5    1
     9     4    30    1
    10     4    31    1
    11     5     6   am
    12     5    15    1
    13     6     7    2
    14     6     8    1
    15     8     9    2
    16     8    32    1
    17     9    10    1
    18     9    33    1
    19    10    14    1
    20    10    11    2
    21    11    12    1
    22    11    34    1
    23    12    13    2
    24    12    35    1
    25    13    14    1
    26    13    36    1
    27    14    37    1
    28    15    16    1
    29    15    38    1
    30    15    39    1
    31    16    17    1
    32    16    18    1
    33    18    19   am
    34    18    40    1
    35    19    20    2
    36    19    21    1
    37    21    26    1
    38    21    22    1
    39    21    23    1
    40    22    41    1
    41    22    42    1
    42    22    43    1
    43    23    24    2
    44    23    44    1
    45    24    25    1
    46    24    45    1
    47    25    26    1
    48    25    46    1
    49    25    47    1
    50    26    48    1
    51    26    49    1
@<TRIPOS>SUBSTRUCTURE
     1 ZINC000939075213        1 TEMP              0 ****  ****    0 ROOT


##########                                Name:    ZINC000373864439
##########                DOCK_Rotatable_Bonds:                   7
##########                         Heavy_Atoms:                  23
##########                    Molecular_Weight:              344.45
##########                DOCK_Rotatable_Bonds:                   7
##########                       Formal_Charge:          -0.0300001
##########                     HBond_Acceptors:                   7
##########                        HBond_Donors:                   1
##########                         Heavy_Atoms:                  23
##########                          Grid_Score:          -30.206779
##########                     Grid_vdw_energy:          -30.216965
##########                      Grid_es_energy:            0.010184
##########           Internal_energy_repulsive:           25.421738

@<TRIPOS>MOLECULE
ZINC000373864439
 48 49 1 0 0
SMALL
USER_CHARGES


@<TRIPOS>ATOM
      1 C1         -6.1422    2.3410   50.9060 C.3     1  ZINC000373864439   -0.1500
      2 C2         -5.6044    3.6809   50.3996 C.3     1  ZINC000373864439   -0.6300
      3 S3         -4.6549    4.4884   51.7175 S.o2    1  ZINC000373864439    2.6100
      4 O4         -4.2414    5.7858   51.3110 O.2     1  ZINC000373864439   -0.9500
      5 O5         -5.2748    4.2788   52.9789 O.2     1  ZINC000373864439   -0.9600
      6 N6         -3.2476    3.6198   51.8046 N.am    1  ZINC000373864439   -1.1200
      7 C7         -2.3702    3.5276   50.6351 C.3     1  ZINC000373864439    0.1100
      8 C8         -2.6007    2.1901   49.9288 C.3     1  ZINC000373864439    0.0500
      9 N9         -1.6560    2.0569   48.8119 N.3     1  ZINC000373864439   -0.5300
     10 C10        -2.3664    1.8464   47.5440 C.3     1  ZINC000373864439    0.0400
     11 C11        -1.3638    1.8578   46.3879 C.3     1  ZINC000373864439   -0.1300
     12 C12        -0.3293    0.7500   46.6049 C.3     1  ZINC000373864439    0.1800
     13 F13        -0.9690   -0.4943   46.6007 F       1  ZINC000373864439   -0.2100
     14 C14         0.6947    0.7936   45.5000 C.ar    1  ZINC000373864439   -0.1500
     15 C15         2.0037    1.1307   45.7837 C.ar    1  ZINC000373864439   -0.0700
     16 C16         2.9437    1.1713   44.7702 C.ar    1  ZINC000373864439   -0.1600
     17 C17         2.5761    0.8742   43.4711 C.ar    1  ZINC000373864439   -0.0700
     18 C18         1.2680    0.5360   43.1821 C.ar    1  ZINC000373864439   -0.2100
     19 C19         0.3244    0.4893   44.1978 C.ar    1  ZINC000373864439    0.1400
     20 O20        -0.9629    0.1570   43.9163 O.3     1  ZINC000373864439   -0.3100
     21 C21        -1.2153   -0.4388   42.6422 C.3     1  ZINC000373864439    0.0200
     22 C22         0.3621    0.9653   47.9540 C.3     1  ZINC000373864439   -0.1300
     23 C23        -0.6905    0.9797   49.0646 C.3     1  ZINC000373864439    0.0600
     24 H24        -6.7882    2.5110   51.7674 H       1  ZINC000373864439    0.0700
     25 H25        -6.7126    1.8558   50.1141 H       1  ZINC000373864439    0.0800
     26 H26        -5.3088    1.7017   51.1974 H       1  ZINC000373864439    0.0700
     27 H27        -4.9583    3.5109   49.5383 H       1  ZINC000373864439    0.1300
     28 H28        -6.4378    4.3202   50.1082 H       1  ZINC000373864439    0.1300
     29 H29        -3.0043    3.1721   52.6300 H       1  ZINC000373864439    0.4200
     30 H30        -2.5931    4.3443   49.9484 H       1  ZINC000373864439    0.0700
     31 H31        -1.3303    3.5952   50.9547 H       1  ZINC000373864439    0.0900
     32 H32        -2.4454    1.3746   50.6353 H       1  ZINC000373864439    0.0900
     33 H33        -3.6213    2.1514   49.5480 H       1  ZINC000373864439    0.0400
     34 H34        -2.8793    0.8850   47.5704 H       1  ZINC000373864439    0.0400
     35 H35        -3.0960    2.6433   47.3998 H       1  ZINC000373864439    0.0900
     36 H36        -1.8894    1.6860   45.4486 H       1  ZINC000373864439    0.0800
     37 H37        -0.8603    2.8239   46.3524 H       1  ZINC000373864439    0.1000
     38 H38         2.2934    1.3633   46.7978 H       1  ZINC000373864439    0.1300
     39 H39         3.9666    1.4358   44.9939 H       1  ZINC000373864439    0.1300
     40 H40         3.3119    0.9069   42.6812 H       1  ZINC000373864439    0.1300
     41 H41         0.9812    0.3043   42.1670 H       1  ZINC000373864439    0.1300
     42 H42        -2.2795   -0.6541   42.5461 H       1  ZINC000373864439    0.1000
     43 H43        -0.9111    0.2489   41.8530 H       1  ZINC000373864439    0.0600
     44 H44        -0.6478   -1.3653   42.5554 H       1  ZINC000373864439    0.0600
     45 H45         1.0696    0.1557   48.1336 H       1  ZINC000373864439    0.0800
     46 H46         0.8927    1.9174   47.9430 H       1  ZINC000373864439    0.1000
     47 H47        -0.2029    1.1471   50.0250 H       1  ZINC000373864439    0.0800
     48 H48        -1.2112    0.0224   49.0840 H       1  ZINC000373864439    0.0400
@<TRIPOS>BOND
     1     1     2    1
     2     1    24    1
     3     1    25    1
     4     1    26    1
     5     2     3    1
     6     2    27    1
     7     2    28    1
     8     3     4    2
     9     3     5    2
    10     3     6   am
    11     6     7    1
    12     6    29    1
    13     7     8    1
    14     7    30    1
    15     7    31    1
    16     8     9    1
    17     8    32    1
    18     8    33    1
    19     9    23    1
    20     9    10    1
    21    10    11    1
    22    10    34    1
    23    10    35    1
    24    11    12    1
    25    11    36    1
    26    11    37    1
    27    12    13    1
    28    12    14    1
    29    12    22    1
    30    14    19   ar
    31    14    15   ar
    32    15    16   ar
    33    15    38    1
    34    16    17   ar
    35    16    39    1
    36    17    18   ar
    37    17    40    1
    38    18    19   ar
    39    18    41    1
    40    19    20    1
    41    20    21    1
    42    21    42    1
    43    21    43    1
    44    21    44    1
    45    22    23    1
    46    22    45    1
    47    22    46    1
    48    23    47    1
    49    23    48    1
@<TRIPOS>SUBSTRUCTURE
     1 ZINC000373864439        1 TEMP              0 ****  ****    0 ROOT


##########                                Name:    ZINC000867639366
##########                DOCK_Rotatable_Bonds:                   6
##########                         Heavy_Atoms:                  25
##########                    Molecular_Weight:             388.509
##########                DOCK_Rotatable_Bonds:                   6
##########                       Formal_Charge:          0.00999961
##########                     HBond_Acceptors:                   9
##########                        HBond_Donors:                   1
##########                         Heavy_Atoms:                  25
##########                          Grid_Score:          -30.184711
##########                     Grid_vdw_energy:          -30.669298
##########                      Grid_es_energy:            0.484587
##########           Internal_energy_repulsive:           40.054184

@<TRIPOS>MOLECULE
ZINC000867639366
 49 51 1 0 0
SMALL
USER_CHARGES


@<TRIPOS>ATOM
      1 C1         -8.4606   -0.6518   64.3904 C.3     1  ZINC000867639366    0.0300
      2 O2         -9.3405   -0.3995   63.2930 O.3     1  ZINC000867639366   -0.3800
      3 C3         -9.1427    0.8711   62.6696 C.3     1  ZINC000867639366    0.0800
      4 H4         -8.4467    1.4634   63.2638 H       1  ZINC000867639366    0.0800
      5 C5        -10.4819    1.6051   62.5697 C.3     1  ZINC000867639366   -0.1400
      6 C6        -11.4704    0.7589   61.7641 C.3     1  ZINC000867639366   -0.1200
      7 C7        -10.9246    0.5537   60.3474 C.3     1  ZINC000867639366    0.1500
      8 H8        -10.8805    1.5122   59.8305 H       1  ZINC000867639366    0.0800
      9 C9        -11.8394   -0.4019   59.5788 C.3     1  ZINC000867639366   -0.1900
     10 N10        -9.5747   -0.0191   60.4392 N.am    1  ZINC000867639366   -0.9800
     11 S11        -9.1923   -1.4116   59.6285 S.o2    1  ZINC000867639366    2.6900
     12 O12        -7.7951   -1.6056   59.8012 O.2     1  ZINC000867639366   -0.9500
     13 O13       -10.1636   -2.3766   60.0081 O.2     1  ZINC000867639366   -0.9400
     14 C14        -9.4430   -1.1016   57.9122 C.ar    1  ZINC000867639366   -0.6300
     15 C15        -9.9831   -2.0846   57.1041 C.ar    1  ZINC000867639366   -0.0500
     16 C16       -10.1799   -1.8414   55.7575 C.ar    1  ZINC000867639366   -0.0400
     17 C17        -9.8371   -0.6152   55.2193 C.ar    1  ZINC000867639366   -0.6300
     18 S18       -10.0874   -0.3054   53.5029 S.o2    1  ZINC000867639366    2.7000
     19 O19       -10.7812   -1.4338   52.9885 O.2     1  ZINC000867639366   -0.9400
     20 O20       -10.5820    1.0230   53.4029 O.2     1  ZINC000867639366   -0.9500
     21 N21        -8.5964   -0.3048   52.7823 N.am    1  ZINC000867639366   -1.0800
     22 C22        -7.5780    0.6587   53.2072 C.3     1  ZINC000867639366    0.0800
     23 C23        -6.4393    0.9599   52.2307 C.3     1  ZINC000867639366   -0.1800
     24 C24        -7.5302    2.0035   52.4789 C.3     1  ZINC000867639366   -0.1900
     25 C25        -9.2984    0.3682   56.0277 C.ar    1  ZINC000867639366   -0.0400
     26 C26        -9.1052    0.1264   57.3750 C.ar    1  ZINC000867639366   -0.0400
     27 C27        -8.5698    0.6672   61.2636 C.3     1  ZINC000867639366    0.1200
     28 H28        -7.4281   -0.6214   64.0425 H       1  ZINC000867639366    0.0400
     29 H29        -8.6083    0.1090   65.1569 H       1  ZINC000867639366    0.0400
     30 H30        -8.6744   -1.6354   64.8087 H       1  ZINC000867639366    0.0900
     31 H31       -10.8793    1.7733   63.5706 H       1  ZINC000867639366    0.0700
     32 H32       -10.3344    2.5635   62.0719 H       1  ZINC000867639366    0.0700
     33 H33       -11.5994   -0.2092   62.2480 H       1  ZINC000867639366    0.0800
     34 H34       -12.4310    1.2715   61.7131 H       1  ZINC000867639366    0.0800
     35 H35       -12.8009    0.0798   59.4009 H       1  ZINC000867639366    0.0700
     36 H36       -11.3787   -0.6570   58.6245 H       1  ZINC000867639366    0.0600
     37 H37       -11.9904   -1.3094   60.1634 H       1  ZINC000867639366    0.1000
     38 H38       -10.2508   -3.0427   57.5245 H       1  ZINC000867639366    0.1600
     39 H39       -10.6011   -2.6097   55.1260 H       1  ZINC000867639366    0.1500
     40 H40        -8.3973   -0.9424   52.0790 H       1  ZINC000867639366    0.4200
     41 H41        -7.3410    0.6540   54.2711 H       1  ZINC000867639366    0.1400
     42 H42        -5.4527    1.1530   52.6521 H       1  ZINC000867639366    0.1100
     43 H43        -6.4479    0.4410   51.2721 H       1  ZINC000867639366    0.1000
     44 H44        -8.2565    2.1712   51.6836 H       1  ZINC000867639366    0.1000
     45 H45        -7.2615    2.8832   53.0635 H       1  ZINC000867639366    0.1000
     46 H46        -9.0310    1.3264   55.6073 H       1  ZINC000867639366    0.1500
     47 H47        -8.6843    0.8947   58.0066 H       1  ZINC000867639366    0.1500
     48 H48        -8.3335    1.6351   60.8213 H       1  ZINC000867639366    0.0900
     49 H49        -7.6670    0.0592   61.3209 H       1  ZINC000867639366    0.1000
@<TRIPOS>BOND
     1     1     2    1
     2     1    28    1
     3     1    29    1
     4     1    30    1
     5     2     3    1
     6     3     4    1
     7     3    27    1
     8     3     5    1
     9     5     6    1
    10     5    31    1
    11     5    32    1
    12     6     7    1
    13     6    33    1
    14     6    34    1
    15     7     8    1
    16     7     9    1
    17     7    10    1
    18     9    35    1
    19     9    36    1
    20     9    37    1
    21    10    11   am
    22    10    27    1
    23    11    12    2
    24    11    13    2
    25    11    14    1
    26    14    26   ar
    27    14    15   ar
    28    15    16   ar
    29    15    38    1
    30    16    17   ar
    31    16    39    1
    32    17    18    1
    33    17    25   ar
    34    18    19    2
    35    18    20    2
    36    18    21   am
    37    21    22    1
    38    21    40    1
    39    22    24    1
    40    22    23    1
    41    22    41    1
    42    23    24    1
    43    23    42    1
    44    23    43    1
    45    24    44    1
    46    24    45    1
    47    25    26   ar
    48    25    46    1
    49    26    47    1
    50    27    48    1
    51    27    49    1
@<TRIPOS>SUBSTRUCTURE
     1 ZINC000867639366        1 TEMP              0 ****  ****    0 ROOT


##########                                Name:    ZINC000441887161
##########                DOCK_Rotatable_Bonds:                   6
##########                         Heavy_Atoms:                  27
##########                    Molecular_Weight:             383.514
##########                DOCK_Rotatable_Bonds:                   6
##########                       Formal_Charge:          -0.0300002
##########                     HBond_Acceptors:                   6
##########                        HBond_Donors:                   1
##########                         Heavy_Atoms:                  27
##########                          Grid_Score:          -30.147146
##########                     Grid_vdw_energy:          -30.951590
##########                      Grid_es_energy:            0.804444
##########           Internal_energy_repulsive:           22.544727

@<TRIPOS>MOLECULE
ZINC000441887161
 52 54 1 0 0
SMALL
USER_CHARGES


@<TRIPOS>ATOM
      1 C1         -3.0698    3.8421   51.3134 C.3     1  ZINC000441887161   -0.1200
      2 C2         -2.2927    3.0938   50.2611 C.ar    1  ZINC000441887161   -0.0700
      3 C3         -2.6726    1.8149   49.9002 C.ar    1  ZINC000441887161   -0.1200
      4 C4         -1.9597    1.1285   48.9347 C.ar    1  ZINC000441887161   -0.0900
      5 C5         -0.8674    1.7214   48.3301 C.ar    1  ZINC000441887161   -0.1100
      6 C6         -0.0901    0.9730   47.2781 C.3     1  ZINC000441887161    0.1900
      7 H7          0.5062    1.6769   46.6974 H       1  ZINC000441887161    0.1000
      8 C8          0.8339   -0.0427   47.9529 C.3     1  ZINC000441887161    0.1000
      9 N9          1.4261    0.5565   49.1515 N.pl3   1  ZINC000441887161   -0.4600
     10 C10         0.8591    0.6133   50.3960 C.2     1  ZINC000441887161   -0.0500
     11 C11         1.7391    1.2443   51.1967 C.2     1  ZINC000441887161   -0.0200
     12 N12         2.8140    1.5641   50.4610 N.2     1  ZINC000441887161   -0.4900
     13 C13         2.6358    1.1508   49.2361 C.2     1  ZINC000441887161    0.1800
     14 N14        -1.0205    0.2721   46.3897 N.am    1  ZINC000441887161   -1.1100
     15 S15        -1.4269    0.9345   44.9273 S.o2    1  ZINC000441887161    2.6900
     16 O16        -2.2090   -0.0391   44.2494 O.2     1  ZINC000441887161   -0.9600
     17 O17        -1.8879    2.2512   45.1974 O.2     1  ZINC000441887161   -0.9500
     18 C18         0.0623    1.1088   44.0019 C.ar    1  ZINC000441887161   -0.6800
     19 C19         0.3818    0.1838   43.0258 C.ar    1  ZINC000441887161   -0.0300
     20 C20         1.5503    0.3206   42.2997 C.ar    1  ZINC000441887161   -0.1300
     21 C21         2.3988    1.3826   42.5494 C.ar    1  ZINC000441887161   -0.0200
     22 C22         3.6728    1.5314   41.7583 C.3     1  ZINC000441887161   -0.1300
     23 C23         2.0786    2.3086   43.5249 C.ar    1  ZINC000441887161   -0.1000
     24 C24         3.0036    3.4669   43.7969 C.3     1  ZINC000441887161   -0.1200
     25 C25         0.9086    2.1740   44.2481 C.ar    1  ZINC000441887161   -0.0100
     26 C26        -0.4882    3.0013   48.6901 C.ar    1  ZINC000441887161   -0.0700
     27 C27         0.7026    3.6479   48.0306 C.3     1  ZINC000441887161   -0.1300
     28 C28        -1.2031    3.6889   49.6526 C.ar    1  ZINC000441887161   -0.1200
     29 H29        -3.8731    4.4062   50.8395 H       1  ZINC000441887161    0.0700
     30 H30        -3.4940    3.1332   52.0244 H       1  ZINC000441887161    0.0700
     31 H31        -2.4042    4.5280   51.8374 H       1  ZINC000441887161    0.0700
     32 H32        -3.5263    1.3516   50.3726 H       1  ZINC000441887161    0.1200
     33 H33        -2.2563    0.1288   48.6532 H       1  ZINC000441887161    0.1200
     34 H34         0.2598   -0.9256   48.2339 H       1  ZINC000441887161    0.1100
     35 H35         1.6258   -0.3294   47.2609 H       1  ZINC000441887161    0.1000
     36 H36        -0.1082    0.2266   50.6811 H       1  ZINC000441887161    0.1700
     37 H37         1.6031    1.4557   52.2470 H       1  ZINC000441887161    0.1600
     38 H38         3.3367    1.2701   48.4232 H       1  ZINC000441887161    0.2000
     39 H39        -1.3985   -0.5799   46.6581 H       1  ZINC000441887161    0.4200
     40 H40        -0.2813   -0.6460   42.8306 H       1  ZINC000441887161    0.1300
     41 H41         1.8002   -0.4026   41.5375 H       1  ZINC000441887161    0.1300
     42 H42         3.4800    2.1311   40.8688 H       1  ZINC000441887161    0.0800
     43 H43         4.4264    2.0243   42.3725 H       1  ZINC000441887161    0.0800
     44 H44         4.0333    0.5465   41.4615 H       1  ZINC000441887161    0.0700
     45 H45         2.7266    4.3096   43.1634 H       1  ZINC000441887161    0.0800
     46 H46         2.9233    3.7578   44.8442 H       1  ZINC000441887161    0.0700
     47 H47         4.0299    3.1710   43.5797 H       1  ZINC000441887161    0.0700
     48 H48         0.6585    2.8974   45.0101 H       1  ZINC000441887161    0.1400
     49 H49         0.3762    4.1905   47.1433 H       1  ZINC000441887161    0.0800
     50 H50         1.1723    4.3414   48.7281 H       1  ZINC000441887161    0.0700
     51 H51         1.4204    2.8797   47.7432 H       1  ZINC000441887161    0.0600
     52 H52        -0.9069    4.6887   49.9338 H       1  ZINC000441887161    0.1300
@<TRIPOS>BOND
     1     1     2    1
     2     1    29    1
     3     1    30    1
     4     1    31    1
     5     2    28   ar
     6     2     3   ar
     7     3     4   ar
     8     3    32    1
     9     4     5   ar
    10     4    33    1
    11     5     6    1
    12     5    26   ar
    13     6     7    1
    14     6     8    1
    15     6    14    1
    16     8     9    1
    17     8    34    1
    18     8    35    1
    19     9    13    1
    20     9    10    1
    21    10    11    2
    22    10    36    1
    23    11    12    1
    24    11    37    1
    25    12    13    2
    26    13    38    1
    27    14    15   am
    28    14    39    1
    29    15    16    2
    30    15    17    2
    31    15    18    1
    32    18    25   ar
    33    18    19   ar
    34    19    20   ar
    35    19    40    1
    36    20    21   ar
    37    20    41    1
    38    21    22    1
    39    21    23   ar
    40    22    42    1
    41    22    43    1
    42    22    44    1
    43    23    24    1
    44    23    25   ar
    45    24    45    1
    46    24    46    1
    47    24    47    1
    48    25    48    1
    49    26    27    1
    50    26    28   ar
    51    27    49    1
    52    27    50    1
    53    27    51    1
    54    28    52    1
@<TRIPOS>SUBSTRUCTURE
     1 ZINC000441887161        1 TEMP              0 ****  ****    0 ROOT


##########                                Name:    ZINC000281257088
##########                DOCK_Rotatable_Bonds:                   8
##########                         Heavy_Atoms:                  27
##########                    Molecular_Weight:             395.541
##########                DOCK_Rotatable_Bonds:                   8
##########                       Formal_Charge:          -0.0200005
##########                     HBond_Acceptors:                   7
##########                        HBond_Donors:                   1
##########                         Heavy_Atoms:                  27
##########                          Grid_Score:          -30.144476
##########                     Grid_vdw_energy:          -29.545757
##########                      Grid_es_energy:           -0.598719
##########           Internal_energy_repulsive:           23.265287

@<TRIPOS>MOLECULE
ZINC000281257088
 57 58 1 0 0
SMALL
USER_CHARGES


@<TRIPOS>ATOM
      1 C1        -11.0595   -2.9822   59.7520 C.3     1  ZINC000281257088   -0.0700
      2 C2        -10.1856   -1.8463   60.2177 C.2     1  ZINC000281257088    0.1000
      3 N3         -9.8899   -1.5657   61.4610 N.2     1  ZINC000281257088   -0.3000
      4 N4         -9.0555   -0.4405   61.4691 N.pl3   1  ZINC000281257088   -0.3700
      5 C5         -8.4923    0.2062   62.6570 C.3     1  ZINC000281257088    0.1500
      6 C6         -8.3740   -0.8179   63.7875 C.3     1  ZINC000281257088   -0.6400
      7 S7         -7.7303   -0.0043   65.2755 S.o2    1  ZINC000281257088    2.4300
      8 C8         -9.0988    1.1001   65.7205 C.3     1  ZINC000281257088   -0.6500
      9 O9         -7.5851   -0.9801   66.2982 O.2     1  ZINC000281257088   -0.9300
     10 O10        -6.6095    0.7887   64.9090 O.2     1  ZINC000281257088   -0.9300
     11 C11        -8.8622   -0.0574   60.1897 C.2     1  ZINC000281257088    0.0900
     12 C12        -8.0294    1.1107   59.7282 C.3     1  ZINC000281257088   -0.1000
     13 C13        -9.5456   -0.9135   59.3952 C.2     1  ZINC000281257088   -0.2300
     14 C14        -9.6124   -0.8649   57.8905 C.3     1  ZINC000281257088    0.1400
     15 N15       -10.6635    0.0744   57.4771 N.3     1  ZINC000281257088   -0.6700
     16 C16       -11.1918   -0.2765   56.1521 C.3     1  ZINC000281257088    0.1400
     17 H17       -11.4850   -1.3263   56.1442 H       1  ZINC000281257088    0.0500
     18 C18       -10.1286   -0.0441   55.1096 C.ar    1  ZINC000281257088   -0.0800
     19 C19       -10.0471   -0.8764   54.0088 C.ar    1  ZINC000281257088   -0.0600
     20 C20        -9.0725   -0.6643   53.0521 C.ar    1  ZINC000281257088   -0.1600
     21 C21        -8.1779    0.3825   53.1963 C.ar    1  ZINC000281257088    0.1000
     22 F22        -7.2251    0.5911   52.2615 F       1  ZINC000281257088   -0.1400
     23 C23        -8.2608    1.2157   54.2990 C.ar    1  ZINC000281257088   -0.1600
     24 C24        -9.2392    1.0046   55.2518 C.ar    1  ZINC000281257088   -0.0900
     25 C25       -12.4098    0.5956   55.8413 C.3     1  ZINC000281257088   -0.0600
     26 C26       -13.5904    0.1497   56.7063 C.3     1  ZINC000281257088   -0.1400
     27 C27       -12.0800    2.0588   56.1436 C.3     1  ZINC000281257088   -0.1400
     28 C28       -12.7772    0.4505   54.3631 C.3     1  ZINC000281257088   -0.1500
     29 H29       -10.4465   -3.8681   59.5866 H       1  ZINC000281257088    0.0800
     30 H30       -11.8114   -3.1972   60.5114 H       1  ZINC000281257088    0.0700
     31 H31       -11.5531   -2.7028   58.8211 H       1  ZINC000281257088    0.0800
     32 H32        -7.5048    0.6026   62.4210 H       1  ZINC000281257088    0.1100
     33 H33        -9.1452    1.0205   62.9713 H       1  ZINC000281257088    0.1100
     34 H34        -9.3564   -1.2395   64.0001 H       1  ZINC000281257088    0.1400
     35 H35        -7.6941   -1.6148   63.4862 H       1  ZINC000281257088    0.1400
     36 H36        -9.9953    0.5097   65.9097 H       1  ZINC000281257088    0.1300
     37 H37        -8.8364    1.6603   66.6180 H       1  ZINC000281257088    0.1300
     38 H38        -9.2869    1.7939   64.9011 H       1  ZINC000281257088    0.1300
     39 H39        -7.0041    0.7816   59.5590 H       1  ZINC000281257088    0.0800
     40 H40        -8.4416    1.5067   58.8001 H       1  ZINC000281257088    0.0900
     41 H41        -8.0400    1.8886   60.4916 H       1  ZINC000281257088    0.0700
     42 H42        -8.6525   -0.5331   57.4947 H       1  ZINC000281257088    0.0800
     43 H43        -9.8407   -1.8584   57.5046 H       1  ZINC000281257088    0.0300
     44 H44       -11.4030    0.1141   58.1623 H       1  ZINC000281257088    0.3400
     45 H45       -10.7450   -1.6929   53.8966 H       1  ZINC000281257088    0.1400
     46 H46        -9.0086   -1.3152   52.1926 H       1  ZINC000281257088    0.1300
     47 H47        -7.5633    2.0324   54.4125 H       1  ZINC000281257088    0.1300
     48 H48        -9.3043    1.6547   56.1119 H       1  ZINC000281257088    0.1300
     49 H49       -13.3287    0.2531   57.7593 H       1  ZINC000281257088    0.0600
     50 H50       -14.4582    0.7710   56.4849 H       1  ZINC000281257088    0.0500
     51 H51       -13.8253   -0.8926   56.4909 H       1  ZINC000281257088    0.0600
     52 H52       -11.2389    2.3764   55.5274 H       1  ZINC000281257088    0.0500
     53 H53       -12.9478    2.6801   55.9221 H       1  ZINC000281257088    0.0600
     54 H54       -11.8183    2.1621   57.1967 H       1  ZINC000281257088    0.0600
     55 H55       -13.0871   -0.5754   54.1648 H       1  ZINC000281257088    0.0500
     56 H56       -13.5952    1.1300   54.1237 H       1  ZINC000281257088    0.0600
     57 H57       -11.9108    0.6937   53.7479 H       1  ZINC000281257088    0.0600
@<TRIPOS>BOND
     1     1     2    1
     2     1    29    1
     3     1    30    1
     4     1    31    1
     5     2    13    1
     6     2     3    2
     7     3     4    1
     8     4     5    1
     9     4    11    1
    10     5     6    1
    11     5    32    1
    12     5    33    1
    13     6     7    1
    14     6    34    1
    15     6    35    1
    16     7     8    1
    17     7     9    2
    18     7    10    2
    19     8    36    1
    20     8    37    1
    21     8    38    1
    22    11    12    1
    23    11    13    2
    24    12    39    1
    25    12    40    1
    26    12    41    1
    27    13    14    1
    28    14    15    1
    29    14    42    1
    30    14    43    1
    31    15    16    1
    32    15    44    1
    33    16    17    1
    34    16    18    1
    35    16    25    1
    36    18    24   ar
    37    18    19   ar
    38    19    20   ar
    39    19    45    1
    40    20    21   ar
    41    20    46    1
    42    21    22    1
    43    21    23   ar
    44    23    24   ar
    45    23    47    1
    46    24    48    1
    47    25    26    1
    48    25    27    1
    49    25    28    1
    50    26    49    1
    51    26    50    1
    52    26    51    1
    53    27    52    1
    54    27    53    1
    55    27    54    1
    56    28    55    1
    57    28    56    1
    58    28    57    1
@<TRIPOS>SUBSTRUCTURE
     1 ZINC000281257088        1 TEMP              0 ****  ****    0 ROOT


##########                                Name:    ZINC000477669194
##########                DOCK_Rotatable_Bonds:                   6
##########                         Heavy_Atoms:                  26
##########                    Molecular_Weight:             387.483
##########                DOCK_Rotatable_Bonds:                   6
##########                       Formal_Charge:         4.47035e-07
##########                     HBond_Acceptors:                   8
##########                        HBond_Donors:                   2
##########                         Heavy_Atoms:                  26
##########                          Grid_Score:          -30.116302
##########                     Grid_vdw_energy:          -30.495852
##########                      Grid_es_energy:            0.379549
##########           Internal_energy_repulsive:            5.429819

@<TRIPOS>MOLECULE
ZINC000477669194
 43 45 1 0 0
SMALL
USER_CHARGES


@<TRIPOS>ATOM
      1 C1         -1.5236   -0.3234   44.8155 C.3     1  ZINC000477669194   -0.0800
      2 C2         -0.9389   -0.3902   46.2029 C.2     1  ZINC000477669194    0.0500
      3 N3         -0.1046    0.4618   46.6900 N.2     1  ZINC000477669194   -0.4900
      4 C4          0.3131    0.2569   47.9308 C.2     1  ZINC000477669194    0.1200
      5 C5          1.2718    1.1556   48.6184 C.ar    1  ZINC000477669194   -0.0600
      6 C6          2.5879    1.2464   48.1732 C.ar    1  ZINC000477669194   -0.0800
      7 C7          3.4769    2.0845   48.8168 C.ar    1  ZINC000477669194   -0.1400
      8 C8          3.0654    2.8356   49.9033 C.ar    1  ZINC000477669194   -0.0900
      9 C9          1.7615    2.7536   50.3547 C.ar    1  ZINC000477669194   -0.1300
     10 C10         0.8562    1.9208   49.7144 C.ar    1  ZINC000477669194    0.1800
     11 N11        -0.4628    1.8370   50.1690 N.am    1  ZINC000477669194   -0.6500
     12 C12        -1.3586    2.7798   49.8157 C.2     1  ZINC000477669194    0.5600
     13 O13        -1.0193    3.7036   49.1012 O.2     1  ZINC000477669194   -0.5200
     14 C14        -2.7505    2.6913   50.2954 C.ar    1  ZINC000477669194   -0.1500
     15 C15        -3.7320    2.1025   49.4925 C.ar    1  ZINC000477669194   -0.0600
     16 C16        -5.0297    2.0211   49.9431 C.ar    1  ZINC000477669194   -0.1400
     17 C17        -5.3656    2.5241   51.1970 C.ar    1  ZINC000477669194    0.1700
     18 N18        -6.6778    2.4403   51.6494 N.am    1  ZINC000477669194   -1.0600
     19 S19        -7.0510    1.4586   52.9298 S.o2    1  ZINC000477669194    2.6100
     20 C20        -8.8385    1.6690   53.1556 C.3     1  ZINC000477669194   -0.6700
     21 O21        -6.7580    0.1485   52.4640 O.2     1  ZINC000477669194   -0.9400
     22 O22        -6.3403    2.0235   54.0231 O.2     1  ZINC000477669194   -0.9500
     23 C23        -4.3905    3.1106   51.9991 C.ar    1  ZINC000477669194   -0.1600
     24 C24        -3.0901    3.1907   51.5563 C.ar    1  ZINC000477669194   -0.0300
     25 C25        -0.2108   -0.8407   48.5133 C.2     1  ZINC000477669194   -0.2600
     26 S26        -1.2956   -1.6030   47.3531 S.3     1  ZINC000477669194    0.1500
     27 H27        -2.2019   -1.1635   44.6663 H       1  ZINC000477669194    0.0800
     28 H28        -2.0713    0.6114   44.6968 H       1  ZINC000477669194    0.0900
     29 H29        -0.7204   -0.3698   44.0801 H       1  ZINC000477669194    0.0900
     30 H30         2.9134    0.6616   47.3257 H       1  ZINC000477669194    0.1300
     31 H31         4.4976    2.1538   48.4707 H       1  ZINC000477669194    0.1300
     32 H32         3.7664    3.4889   50.4015 H       1  ZINC000477669194    0.1300
     33 H33         1.4464    3.3419   51.2038 H       1  ZINC000477669194    0.1500
     34 H34        -0.7334    1.1002   50.7390 H       1  ZINC000477669194    0.4200
     35 H35        -3.4722    1.7124   48.5196 H       1  ZINC000477669194    0.1300
     36 H36        -5.7884    1.5667   49.3232 H       1  ZINC000477669194    0.1400
     37 H37        -7.3745    2.9567   51.2149 H       1  ZINC000477669194    0.4300
     38 H38        -9.3630    1.2837   52.2812 H       1  ZINC000477669194    0.1300
     39 H39        -9.1596    1.1222   54.0421 H       1  ZINC000477669194    0.1400
     40 H40        -9.0670    2.7276   53.2792 H       1  ZINC000477669194    0.1300
     41 H41        -4.6541    3.4996   52.9715 H       1  ZINC000477669194    0.1700
     42 H42        -2.3340    3.6455   52.1791 H       1  ZINC000477669194    0.1500
     43 H43        -0.0050   -1.1886   49.5147 H       1  ZINC000477669194    0.1800
@<TRIPOS>BOND
     1     1     2    1
     2     1    27    1
     3     1    28    1
     4     1    29    1
     5     2    26    1
     6     2     3    2
     7     3     4    1
     8     4     5    1
     9     4    25    2
    10     5    10   ar
    11     5     6   ar
    12     6     7   ar
    13     6    30    1
    14     7     8   ar
    15     7    31    1
    16     8     9   ar
    17     8    32    1
    18     9    10   ar
    19     9    33    1
    20    10    11    1
    21    11    12   am
    22    11    34    1
    23    12    13    2
    24    12    14    1
    25    14    24   ar
    26    14    15   ar
    27    15    16   ar
    28    15    35    1
    29    16    17   ar
    30    16    36    1
    31    17    18    1
    32    17    23   ar
    33    18    19   am
    34    18    37    1
    35    19    20    1
    36    19    21    2
    37    19    22    2
    38    20    38    1
    39    20    39    1
    40    20    40    1
    41    23    24   ar
    42    23    41    1
    43    24    42    1
    44    25    26    1
    45    25    43    1
@<TRIPOS>SUBSTRUCTURE
     1 ZINC000477669194        1 TEMP              0 ****  ****    0 ROOT


##########                                Name:    ZINC000481050680
##########                DOCK_Rotatable_Bonds:                   7
##########                         Heavy_Atoms:                  29
##########                    Molecular_Weight:              412.46
##########                DOCK_Rotatable_Bonds:                   7
##########                       Formal_Charge:          -0.0199997
##########                     HBond_Acceptors:                   7
##########                        HBond_Donors:                   1
##########                         Heavy_Atoms:                  29
##########                          Grid_Score:          -30.111584
##########                     Grid_vdw_energy:          -28.206203
##########                      Grid_es_energy:           -1.905381
##########           Internal_energy_repulsive:           14.345121

@<TRIPOS>MOLECULE
ZINC000481050680
 47 49 1 0 0
SMALL
USER_CHARGES


@<TRIPOS>ATOM
      1 N1        -11.1177   -0.1192   55.0477 N.1     1  ZINC000481050680   -0.3900
      2 C2        -10.1711    0.2942   54.5750 C.1     1  ZINC000481050680    0.2500
      3 C3         -8.9778    0.8153   53.9789 C.ar    1  ZINC000481050680    0.0200
      4 C4         -8.2433    0.0355   53.0837 C.ar    1  ZINC000481050680   -0.0800
      5 C5         -7.0945    0.5427   52.5120 C.ar    1  ZINC000481050680   -0.0800
      6 C6         -6.6689    1.8212   52.8234 C.ar    1  ZINC000481050680   -0.1000
      7 C7         -5.4132    2.3680   52.1947 C.3     1  ZINC000481050680   -0.5900
      8 S8         -5.5452    2.2613   50.3887 S.o2    1  ZINC000481050680    2.6000
      9 O9         -5.1808    0.9639   49.9379 O.2     1  ZINC000481050680   -0.9300
     10 O10        -6.7401    2.8846   49.9384 O.2     1  ZINC000481050680   -0.9400
     11 N11        -4.3357    3.2434   49.8273 N.am    1  ZINC000481050680   -1.1100
     12 C12        -2.9412    2.9602   50.1755 C.3     1  ZINC000481050680    0.2100
     13 H13        -2.9085    2.3593   51.0843 H       1  ZINC000481050680    0.1000
     14 C14        -2.1961    4.2764   50.4074 C.3     1  ZINC000481050680   -0.0800
     15 C15        -1.6536    4.3056   51.8130 C.ar    1  ZINC000481050680   -0.0900
     16 C16        -2.5127    4.4785   52.8820 C.ar    1  ZINC000481050680   -0.1200
     17 C17        -2.0151    4.5054   54.1714 C.ar    1  ZINC000481050680   -0.1200
     18 C18        -0.6583    4.3590   54.3917 C.ar    1  ZINC000481050680   -0.1200
     19 C19         0.2008    4.1854   53.3227 C.ar    1  ZINC000481050680   -0.1200
     20 C20        -0.2974    4.1541   52.0337 C.ar    1  ZINC000481050680   -0.1200
     21 C21        -2.2858    2.2036   49.0491 C.ar    1  ZINC000481050680   -0.1300
     22 C22        -2.9151    2.1077   47.8227 C.ar    1  ZINC000481050680   -0.0700
     23 C23        -2.3139    1.4135   46.7890 C.ar    1  ZINC000481050680   -0.1300
     24 C24        -1.0833    0.8144   46.9813 C.ar    1  ZINC000481050680   -0.0900
     25 C25        -0.4521    0.9085   48.2073 C.ar    1  ZINC000481050680   -0.1500
     26 C26        -1.0499    1.6089   49.2410 C.ar    1  ZINC000481050680    0.1100
     27 F27        -0.4339    1.7017   50.4398 F       1  ZINC000481050680   -0.1400
     28 C28        -7.3927    2.6019   53.7109 C.ar    1  ZINC000481050680    0.1200
     29 F29        -6.9712    3.8502   54.0100 F       1  ZINC000481050680   -0.1200
     30 C30        -8.5473    2.1074   54.2863 C.ar    1  ZINC000481050680   -0.1000
     31 H31        -8.5735   -0.9633   52.8391 H       1  ZINC000481050680    0.1500
     32 H32        -6.5259   -0.0604   51.8196 H       1  ZINC000481050680    0.1500
     33 H33        -5.2835    3.4096   52.4887 H       1  ZINC000481050680    0.1500
     34 H34        -4.5553    1.7860   52.5314 H       1  ZINC000481050680    0.1500
     35 H35        -4.5507    4.0061   49.2678 H       1  ZINC000481050680    0.4200
     36 H36        -1.3724    4.3573   49.6982 H       1  ZINC000481050680    0.0900
     37 H37        -2.8816    5.1117   50.2649 H       1  ZINC000481050680    0.0900
     38 H38        -3.5728    4.5928   52.7099 H       1  ZINC000481050680    0.1200
     39 H39        -2.6863    4.6410   55.0065 H       1  ZINC000481050680    0.1200
     40 H40        -0.2694    4.3807   55.3991 H       1  ZINC000481050680    0.1200
     41 H41         1.2609    4.0714   53.4949 H       1  ZINC000481050680    0.1200
     42 H42         0.3738    4.0185   51.1985 H       1  ZINC000481050680    0.1200
     43 H43        -3.8770    2.5749   47.6716 H       1  ZINC000481050680    0.1300
     44 H44        -2.8066    1.3391   45.8308 H       1  ZINC000481050680    0.1300
     45 H45        -0.6148    0.2720   46.1732 H       1  ZINC000481050680    0.1300
     46 H46         0.5092    0.4397   48.3574 H       1  ZINC000481050680    0.1400
     47 H47        -9.1113    2.7159   54.9776 H       1  ZINC000481050680    0.1600
@<TRIPOS>BOND
     1     1     2    3
     2     2     3    1
     3     3    30   ar
     4     3     4   ar
     5     4     5   ar
     6     4    31    1
     7     5     6   ar
     8     5    32    1
     9     6     7    1
    10     6    28   ar
    11     7     8    1
    12     7    33    1
    13     7    34    1
    14     8     9    2
    15     8    10    2
    16     8    11   am
    17    11    12    1
    18    11    35    1
    19    12    13    1
    20    12    14    1
    21    12    21    1
    22    14    15    1
    23    14    36    1
    24    14    37    1
    25    15    20   ar
    26    15    16   ar
    27    16    17   ar
    28    16    38    1
    29    17    18   ar
    30    17    39    1
    31    18    19   ar
    32    18    40    1
    33    19    20   ar
    34    19    41    1
    35    20    42    1
    36    21    26   ar
    37    21    22   ar
    38    22    23   ar
    39    22    43    1
    40    23    24   ar
    41    23    44    1
    42    24    25   ar
    43    24    45    1
    44    25    26   ar
    45    25    46    1
    46    26    27    1
    47    28    29    1
    48    28    30   ar
    49    30    47    1
@<TRIPOS>SUBSTRUCTURE
     1 ZINC000481050680        1 TEMP              0 ****  ****    0 ROOT


##########                                Name:    ZINC001039666729
##########                DOCK_Rotatable_Bonds:                   3
##########                         Heavy_Atoms:                  25
##########                    Molecular_Weight:             344.376
##########                DOCK_Rotatable_Bonds:                   3
##########                       Formal_Charge:          -0.0199998
##########                     HBond_Acceptors:                  10
##########                        HBond_Donors:                   2
##########                         Heavy_Atoms:                  25
##########                          Grid_Score:          -30.072666
##########                     Grid_vdw_energy:          -28.034363
##########                      Grid_es_energy:           -2.038304
##########           Internal_energy_repulsive:           37.215012

@<TRIPOS>MOLECULE
ZINC001039666729
 45 47 1 0 0
SMALL
USER_CHARGES


@<TRIPOS>ATOM
      1 C1         -4.5873    2.0835   50.7329 C.3     1  ZINC001039666729   -0.1100
      2 C2         -3.2154    2.5787   50.3534 C.ar    1  ZINC001039666729    0.2200
      3 C3         -2.8872    3.9169   50.5012 C.ar    1  ZINC001039666729   -0.3000
      4 C4         -1.6145    4.3309   50.1402 C.ar    1  ZINC001039666729    0.1900
      5 N5         -0.7564    3.4418   49.6681 N.ar    1  ZINC001039666729   -0.5800
      6 C6         -1.1021    2.1691   49.5393 C.ar    1  ZINC001039666729    0.6000
      7 N7         -0.1791    1.2653   49.0423 N.pl3   1  ZINC001039666729   -0.5900
      8 C8         -0.1445   -0.1800   49.4223 C.3     1  ZINC001039666729    0.1200
      9 C9         -1.2096   -0.9071   48.5984 C.3     1  ZINC001039666729    0.0900
     10 N10        -0.8530   -0.7882   47.1626 N.am    1  ZINC001039666729   -0.7400
     11 C11        -1.5121    0.2106   46.4955 C.2     1  ZINC001039666729    0.5200
     12 O12        -2.3131    0.9168   47.0705 O.2     1  ZINC001039666729   -0.5200
     13 C13        -1.2190    0.4121   45.0311 C.3     1  ZINC001039666729   -0.1500
     14 C14        -0.6549    1.8175   44.8124 C.3     1  ZINC001039666729    0.1100
     15 N15         0.5479    1.9780   45.6699 N.am    1  ZINC001039666729   -0.6100
     16 C16         1.7844    1.6309   45.2613 C.2     1  ZINC001039666729    0.6100
     17 O17         2.7348    1.7819   46.0040 O.2     1  ZINC001039666729   -0.5200
     18 C18         1.9849    1.0665   43.9100 C.2     1  ZINC001039666729   -0.0400
     19 N19         1.0514    0.6402   43.0730 N.2     1  ZINC001039666729   -0.2500
     20 N20         1.6244    0.2223   42.0004 N.pl3   1  ZINC001039666729   -0.2300
     21 N21         2.9010    0.3480   42.0784 N.2     1  ZINC001039666729   -0.2800
     22 C22         3.2093    0.8744   43.2392 C.2     1  ZINC001039666729    0.0400
     23 C23         0.2786    2.5522   47.0137 C.3     1  ZINC001039666729    0.1100
     24 C24         0.8898    1.6251   48.0612 C.3     1  ZINC001039666729    0.1300
     25 N25        -2.3082    1.7401   49.8801 N.ar    1  ZINC001039666729   -0.5700
     26 H26        -4.5878    1.7818   51.7803 H       1  ZINC001039666729    0.0800
     27 H27        -5.3154    2.8808   50.5841 H       1  ZINC001039666729    0.0800
     28 H28        -4.8508    1.2295   50.1088 H       1  ZINC001039666729    0.0800
     29 H29        -3.6075    4.6221   50.8890 H       1  ZINC001039666729    0.1400
     30 H30        -1.3270    5.3668   50.2427 H       1  ZINC001039666729    0.1600
     31 H31         0.8389   -0.5958   49.2032 H       1  ZINC001039666729    0.0800
     32 H32        -0.3629   -0.2875   50.4849 H       1  ZINC001039666729    0.0900
     33 H33        -1.2396   -1.9586   48.8834 H       1  ZINC001039666729    0.0800
     34 H34        -2.1839   -0.4509   48.7737 H       1  ZINC001039666729    0.1000
     35 H35        -0.2068   -1.3697   46.7322 H       1  ZINC001039666729    0.4100
     36 H36        -0.4893   -0.3275   44.7015 H       1  ZINC001039666729    0.0800
     37 H37        -2.1384    0.2963   44.4572 H       1  ZINC001039666729    0.1100
     38 H38        -0.3791    1.9437   43.7655 H       1  ZINC001039666729    0.1100
     39 H39        -1.4036    2.5605   45.0874 H       1  ZINC001039666729    0.0900
     40 H40         1.1548   -0.1408   41.2332 H       1  ZINC001039666729    0.4700
     41 H41         4.1976    1.1061   43.6079 H       1  ZINC001039666729    0.2100
     42 H42         0.7296    3.5418   47.0872 H       1  ZINC001039666729    0.0800
     43 H43        -0.7972    2.6257   47.1728 H       1  ZINC001039666729    0.1200
     44 H44         1.7017    2.1367   48.5778 H       1  ZINC001039666729    0.0700
     45 H45         1.2683    0.7234   47.5796 H       1  ZINC001039666729    0.0900
@<TRIPOS>BOND
     1     1     2    1
     2     1    26    1
     3     1    27    1
     4     1    28    1
     5     2    25   ar
     6     2     3   ar
     7     3     4   ar
     8     3    29    1
     9     4     5   ar
    10     4    30    1
    11     5     6   ar
    12     6     7    1
    13     6    25   ar
    14     7    24    1
    15     7     8    1
    16     8     9    1
    17     8    31    1
    18     8    32    1
    19     9    10    1
    20     9    33    1
    21     9    34    1
    22    10    11   am
    23    10    35    1
    24    11    12    2
    25    11    13    1
    26    13    14    1
    27    13    36    1
    28    13    37    1
    29    14    15    1
    30    14    38    1
    31    14    39    1
    32    15    16   am
    33    15    23    1
    34    16    17    2
    35    16    18    1
    36    18    22    1
    37    18    19    2
    38    19    20    1
    39    20    21    1
    40    20    40    1
    41    21    22    2
    42    22    41    1
    43    23    24    1
    44    23    42    1
    45    23    43    1
    46    24    44    1
    47    24    45    1
@<TRIPOS>SUBSTRUCTURE
     1 ZINC001039666729        1 TEMP              0 ****  ****    0 ROOT


##########                                Name:    ZINC000326056918
##########                DOCK_Rotatable_Bonds:                   6
##########                         Heavy_Atoms:                  24
##########                    Molecular_Weight:             408.326
##########                DOCK_Rotatable_Bonds:                   6
##########                       Formal_Charge:         -0.00999978
##########                     HBond_Acceptors:                   9
##########                        HBond_Donors:                   0
##########                         Heavy_Atoms:                  24
##########                          Grid_Score:          -30.029095
##########                     Grid_vdw_energy:          -29.021763
##########                      Grid_es_energy:           -1.007332
##########           Internal_energy_repulsive:           33.919346

@<TRIPOS>MOLECULE
ZINC000326056918
 39 40 1 0 0
SMALL
USER_CHARGES


@<TRIPOS>ATOM
      1 C1         -1.0512    4.7326   53.5220 C.3     1  ZINC000326056918    0.0400
      2 O2         -0.3568    3.7622   52.6948 O.3     1  ZINC000326056918   -0.3500
      3 C3          0.9559    3.9771   52.4698 C.2     1  ZINC000326056918    0.5000
      4 O4          1.4853    4.9918   52.8815 O.2     1  ZINC000326056918   -0.4300
      5 C5          1.7431    2.9891   51.7301 C.2     1  ZINC000326056918   -0.1600
      6 C6          1.5397    2.6268   50.4273 C.2     1  ZINC000326056918   -0.6200
      7 S7          0.2681    3.3124   49.4184 S.o2    1  ZINC000326056918    2.6900
      8 O8          0.0219    4.6202   49.9165 O.2     1  ZINC000326056918   -0.9100
      9 O9          0.6393    3.0507   48.0719 O.2     1  ZINC000326056918   -0.9400
     10 N10        -1.1086    2.4370   49.7025 N.am    1  ZINC000326056918   -0.9900
     11 C11        -2.3047    3.1020   50.2251 C.3     1  ZINC000326056918    0.0900
     12 C12        -1.1303    0.9974   49.4313 C.3     1  ZINC000326056918    0.1500
     13 C13        -1.3984    0.7662   47.9665 C.ar    1  ZINC000326056918   -0.0900
     14 C14        -1.8614    1.8018   47.1772 C.ar    1  ZINC000326056918   -0.0800
     15 C15        -2.1080    1.5905   45.8334 C.ar    1  ZINC000326056918   -0.1100
     16 C16        -1.8910    0.3422   45.2780 C.ar    1  ZINC000326056918   -0.0200
     17 Cl17       -2.2002    0.0772   43.5905 Cl      1  ZINC000326056918   -0.0600
     18 C18        -1.4270   -0.6947   46.0677 C.ar    1  ZINC000326056918   -0.1100
     19 C19        -1.1755   -0.4813   47.4108 C.ar    1  ZINC000326056918   -0.0300
     20 Cl20       -0.5928   -1.7818   48.4024 Cl      1  ZINC000326056918   -0.0100
     21 C21         2.4262    1.6755   49.9831 C.2     1  ZINC000326056918   -0.0400
     22 C22         2.3889    1.1285   48.5794 C.3     1  ZINC000326056918   -0.1100
     23 C23         3.3256    1.2706   50.8880 C.2     1  ZINC000326056918   -0.2600
     24 S24         3.1067    2.0833   52.3721 S.3     1  ZINC000326056918    0.3100
     25 H25        -2.0969    4.4417   53.6231 H       1  ZINC000326056918    0.1100
     26 H26        -0.5872    4.7683   54.5076 H       1  ZINC000326056918    0.0700
     27 H27        -0.9912    5.7163   53.0562 H       1  ZINC000326056918    0.0700
     28 H28        -2.8720    3.5312   49.3992 H       1  ZINC000326056918    0.0600
     29 H29        -2.9234    2.3756   50.7520 H       1  ZINC000326056918    0.0700
     30 H30        -2.0088    3.8941   50.9130 H       1  ZINC000326056918    0.0900
     31 H31        -0.1667    0.5630   49.6972 H       1  ZINC000326056918    0.1100
     32 H32        -1.9162    0.5280   50.0230 H       1  ZINC000326056918    0.0900
     33 H33        -2.0310    2.7766   47.6103 H       1  ZINC000326056918    0.1400
     34 H34        -2.4705    2.4000   45.2172 H       1  ZINC000326056918    0.1400
     35 H35        -1.2574   -1.6695   45.6345 H       1  ZINC000326056918    0.1500
     36 H36         2.9251    1.8032   47.9121 H       1  ZINC000326056918    0.0900
     37 H37         2.8615    0.1464   48.5595 H       1  ZINC000326056918    0.0700
     38 H38         1.3532    1.0400   48.2513 H       1  ZINC000326056918    0.0900
     39 H39         4.0903    0.5309   50.7022 H       1  ZINC000326056918    0.1800
@<TRIPOS>BOND
     1     1     2    1
     2     1    25    1
     3     1    26    1
     4     1    27    1
     5     2     3    1
     6     3     4    2
     7     3     5    1
     8     5    24    1
     9     5     6    2
    10     6     7    1
    11     6    21    1
    12     7     8    2
    13     7     9    2
    14     7    10   am
    15    10    11    1
    16    10    12    1
    17    11    28    1
    18    11    29    1
    19    11    30    1
    20    12    13    1
    21    12    31    1
    22    12    32    1
    23    13    19   ar
    24    13    14   ar
    25    14    15   ar
    26    14    33    1
    27    15    16   ar
    28    15    34    1
    29    16    17    1
    30    16    18   ar
    31    18    19   ar
    32    18    35    1
    33    19    20    1
    34    21    22    1
    35    21    23    2
    36    22    36    1
    37    22    37    1
    38    22    38    1
    39    23    24    1
    40    23    39    1
@<TRIPOS>SUBSTRUCTURE
     1 ZINC000326056918        1 TEMP              0 ****  ****    0 ROOT


##########                                Name:    ZINC000863208514
##########                DOCK_Rotatable_Bonds:                   6
##########                         Heavy_Atoms:                  19
##########                    Molecular_Weight:             368.657
##########                DOCK_Rotatable_Bonds:                   6
##########                       Formal_Charge:           0.0100005
##########                     HBond_Acceptors:                   7
##########                        HBond_Donors:                   2
##########                         Heavy_Atoms:                  19
##########                          Grid_Score:          -30.014927
##########                     Grid_vdw_energy:          -29.887705
##########                      Grid_es_energy:           -0.127223
##########           Internal_energy_repulsive:            9.545678

@<TRIPOS>MOLECULE
ZINC000863208514
 31 31 1 0 0
SMALL
USER_CHARGES


@<TRIPOS>ATOM
      1 C1         -5.9960    3.2647   51.7818 C.3     1  ZINC000863208514    0.0900
      2 N2         -4.6976    3.0271   51.1464 N.am    1  ZINC000863208514   -0.6100
      3 C3         -3.5968    3.9712   51.3540 C.3     1  ZINC000863208514    0.0700
      4 C4         -4.5157    1.9399   50.3708 C.2     1  ZINC000863208514    0.5100
      5 O5         -5.4275    1.1591   50.1977 O.2     1  ZINC000863208514   -0.5400
      6 C6         -3.1795    1.6946   49.7187 C.3     1  ZINC000863208514    0.1100
      7 N7         -3.2029    2.2111   48.3479 N.am    1  ZINC000863208514   -0.6600
      8 C8         -2.2864    1.7909   47.4536 C.2     1  ZINC000863208514    0.5600
      9 S9         -1.0935    0.6550   47.9200 S.2     1  ZINC000863208514   -0.6000
     10 N10        -2.3089    2.2649   46.1921 N.am    1  ZINC000863208514   -0.6300
     11 C11        -1.3565    1.8282   45.2628 C.ar    1  ZINC000863208514    0.1200
     12 C12        -1.6381    0.7533   44.4318 C.ar    1  ZINC000863208514   -0.0300
     13 C13        -0.6962    0.3243   43.5147 C.ar    1  ZINC000863208514   -0.0200
     14 Cl14       -1.0484   -1.0200   42.4744 Cl      1  ZINC000863208514   -0.0300
     15 C15         0.5271    0.9660   43.4249 C.ar    1  ZINC000863208514   -0.0600
     16 Br16        1.8122    0.3761   42.1695 Br      1  ZINC000863208514   -0.0100
     17 C17         0.8111    2.0385   44.2518 C.ar    1  ZINC000863208514   -0.1100
     18 C18        -0.1287    2.4747   45.1673 C.ar    1  ZINC000863208514    0.1100
     19 F19         0.1488    3.5219   45.9745 F       1  ZINC000863208514   -0.1200
     20 H20        -5.9524    4.1845   52.3648 H       1  ZINC000863208514    0.0800
     21 H21        -6.7646    3.3571   51.0144 H       1  ZINC000863208514    0.0700
     22 H22        -6.2374    2.4291   52.4388 H       1  ZINC000863208514    0.0700
     23 H23        -3.0194    3.6696   52.2280 H       1  ZINC000863208514    0.0700
     24 H24        -2.9513    3.9755   50.4758 H       1  ZINC000863208514    0.0800
     25 H25        -4.0008    4.9710   51.5128 H       1  ZINC000863208514    0.0800
     26 H26        -2.3997    2.2035   50.2854 H       1  ZINC000863208514    0.1200
     27 H27        -2.9753    0.6241   49.7001 H       1  ZINC000863208514    0.1200
     28 H28        -3.8781    2.8557   48.0840 H       1  ZINC000863208514    0.4100
     29 H29        -2.9849    2.9086   45.9279 H       1  ZINC000863208514    0.4200
     30 H30        -2.5921    0.2519   44.5013 H       1  ZINC000863208514    0.1800
     31 H31         1.7663    2.5374   44.1798 H       1  ZINC000863208514    0.1600
@<TRIPOS>BOND
     1     1     2    1
     2     1    20    1
     3     1    21    1
     4     1    22    1
     5     2     3    1
     6     2     4   am
     7     3    23    1
     8     3    24    1
     9     3    25    1
    10     4     5    2
    11     4     6    1
    12     6     7    1
    13     6    26    1
    14     6    27    1
    15     7     8   am
    16     7    28    1
    17     8     9    2
    18     8    10   am
    19    10    11    1
    20    10    29    1
    21    11    18   ar
    22    11    12   ar
    23    12    13   ar
    24    12    30    1
    25    13    14    1
    26    13    15   ar
    27    15    16    1
    28    15    17   ar
    29    17    18   ar
    30    17    31    1
    31    18    19    1
@<TRIPOS>SUBSTRUCTURE
     1 ZINC000863208514        1 TEMP              0 ****  ****    0 ROOT


##########                                Name:    ZINC000800038938
##########                DOCK_Rotatable_Bonds:                   6
##########                         Heavy_Atoms:                  25
##########                    Molecular_Weight:             386.274
##########                DOCK_Rotatable_Bonds:                   6
##########                       Formal_Charge:           0.0200003
##########                     HBond_Acceptors:                   7
##########                        HBond_Donors:                   0
##########                         Heavy_Atoms:                  25
##########                          Grid_Score:          -29.999846
##########                     Grid_vdw_energy:          -29.382082
##########                      Grid_es_energy:           -0.617764
##########           Internal_energy_repulsive:           11.962701

@<TRIPOS>MOLECULE
ZINC000800038938
 46 48 1 0 0
SMALL
USER_CHARGES


@<TRIPOS>ATOM
      1 C1         -0.9280    1.9566   45.0532 C.3     1  ZINC000800038938    0.0300
      2 O2         -0.8829    0.7613   45.8351 O.3     1  ZINC000800038938   -0.3800
      3 C3         -0.4233    0.9593   47.1737 C.3     1  ZINC000800038938    0.0900
      4 H4          0.5773    1.3914   47.1644 H       1  ZINC000800038938    0.0700
      5 C5         -0.4121   -0.3836   47.9326 C.3     1  ZINC000800038938   -0.1400
      6 C6         -0.8546   -0.0116   49.3695 C.3     1  ZINC000800038938   -0.1400
      7 C7         -1.9344    1.0716   49.1250 C.3     1  ZINC000800038938    0.0900
      8 H8         -2.8876    0.6092   48.8691 H       1  ZINC000800038938    0.0900
      9 O9         -2.0796    1.9179   50.2959 O.3     1  ZINC000800038938   -0.3500
     10 C10        -3.1019    2.7878   50.2961 C.2     1  ZINC000800038938    0.4500
     11 O11        -3.7468    2.9623   49.2894 O.2     1  ZINC000800038938   -0.4800
     12 C12        -3.4452    3.5468   51.5519 C.3     1  ZINC000800038938    0.1500
     13 H13        -3.1499    2.9681   52.4271 H       1  ZINC000800038938    0.1200
     14 C14        -2.7216    4.9100   51.5556 C.3     1  ZINC000800038938   -0.1200
     15 C15        -3.7806    5.8638   52.1690 C.3     1  ZINC000800038938   -0.1300
     16 C16        -5.0954    5.2789   51.5954 C.3     1  ZINC000800038938    0.0900
     17 N17        -4.8899    3.8157   51.5944 N.am    1  ZINC000800038938   -0.6000
     18 C18        -5.8649    2.8856   51.6242 C.2     1  ZINC000800038938    0.5800
     19 O19        -5.5782    1.7044   51.6199 O.2     1  ZINC000800038938   -0.4900
     20 C20        -7.2823    3.3020   51.6619 C.ar    1  ZINC000800038938   -0.1100
     21 C21        -7.9939    3.4754   50.4738 C.ar    1  ZINC000800038938   -0.0700
     22 C22        -9.3178    3.8645   50.5162 C.ar    1  ZINC000800038938   -0.0400
     23 Cl23      -10.2048    4.0802   49.0396 Cl      1  ZINC000800038938   -0.0500
     24 C24        -9.9400    4.0828   51.7340 C.ar    1  ZINC000800038938   -0.0700
     25 C25        -9.2409    3.9133   52.9151 C.ar    1  ZINC000800038938   -0.1000
     26 C26        -7.9178    3.5183   52.8874 C.ar    1  ZINC000800038938    0.0100
     27 Cl27       -7.0418    3.3060   54.3711 Cl      1  ZINC000800038938   -0.0300
     28 C28        -1.3905    1.8856   47.9315 C.3     1  ZINC000800038938   -0.1200
     29 H29        -1.2868    1.7219   44.0511 H       1  ZINC000800038938    0.0900
     30 H30        -1.6028    2.6725   45.5224 H       1  ZINC000800038938    0.0400
     31 H31         0.0714    2.3871   44.9898 H       1  ZINC000800038938    0.0400
     32 H32        -1.1196   -1.0812   47.4841 H       1  ZINC000800038938    0.0800
     33 H33         0.5915   -0.8090   47.9406 H       1  ZINC000800038938    0.0800
     34 H34        -1.2825   -0.8757   49.8779 H       1  ZINC000800038938    0.0800
     35 H35        -0.0189    0.3972   49.9374 H       1  ZINC000800038938    0.0800
     36 H36        -1.8294    4.8714   52.1805 H       1  ZINC000800038938    0.1000
     37 H37        -2.4696    5.2155   50.5401 H       1  ZINC000800038938    0.0900
     38 H38        -3.7712    5.8098   53.2576 H       1  ZINC000800038938    0.0900
     39 H39        -3.6276    6.8880   51.8289 H       1  ZINC000800038938    0.1000
     40 H40        -5.9381    5.5418   52.2346 H       1  ZINC000800038938    0.0900
     41 H41        -5.2605    5.6406   50.5804 H       1  ZINC000800038938    0.0800
     42 H42        -7.5099    3.3059   49.5233 H       1  ZINC000800038938    0.1500
     43 H43       -10.9759    4.3871   51.7615 H       1  ZINC000800038938    0.1500
     44 H44        -9.7321    4.0855   53.8615 H       1  ZINC000800038938    0.1500
     45 H45        -0.8599    2.7671   48.2915 H       1  ZINC000800038938    0.0900
     46 H46        -2.2105    2.1839   47.2783 H       1  ZINC000800038938    0.0900
@<TRIPOS>BOND
     1     1     2    1
     2     1    29    1
     3     1    30    1
     4     1    31    1
     5     2     3    1
     6     3     4    1
     7     3    28    1
     8     3     5    1
     9     5     6    1
    10     5    32    1
    11     5    33    1
    12     6     7    1
    13     6    34    1
    14     6    35    1
    15     7     8    1
    16     7     9    1
    17     7    28    1
    18     9    10    1
    19    10    11    2
    20    10    12    1
    21    12    13    1
    22    12    17    1
    23    12    14    1
    24    14    15    1
    25    14    36    1
    26    14    37    1
    27    15    16    1
    28    15    38    1
    29    15    39    1
    30    16    17    1
    31    16    40    1
    32    16    41    1
    33    17    18   am
    34    18    19    2
    35    18    20    1
    36    20    26   ar
    37    20    21   ar
    38    21    22   ar
    39    21    42    1
    40    22    23    1
    41    22    24   ar
    42    24    25   ar
    43    24    43    1
    44    25    26   ar
    45    25    44    1
    46    26    27    1
    47    28    45    1
    48    28    46    1
@<TRIPOS>SUBSTRUCTURE
     1 ZINC000800038938        1 TEMP              0 ****  ****    0 ROOT


##########                                Name:    ZINC001345266033
##########                DOCK_Rotatable_Bonds:                   4
##########                         Heavy_Atoms:                  29
##########                    Molecular_Weight:               389.5
##########                DOCK_Rotatable_Bonds:                   4
##########                       Formal_Charge:          -0.0100001
##########                     HBond_Acceptors:                   6
##########                        HBond_Donors:                   0
##########                         Heavy_Atoms:                  29
##########                          Grid_Score:          -29.955555
##########                     Grid_vdw_energy:          -28.778536
##########                      Grid_es_energy:           -1.177020
##########           Internal_energy_repulsive:           15.160052

@<TRIPOS>MOLECULE
ZINC001345266033
 56 61 1 0 0
SMALL
USER_CHARGES


@<TRIPOS>ATOM
      1 C1         -0.5000    2.2295   45.2959 C.ar    1  ZINC001345266033   -0.1100
      2 C2         -1.8108    1.9900   45.7003 C.ar    1  ZINC001345266033   -0.0900
      3 C3         -2.1768    2.1216   47.0083 C.ar    1  ZINC001345266033   -0.1100
      4 C4         -1.2212    2.5017   47.9535 C.ar    1  ZINC001345266033    0.0000
      5 C5          0.1156    2.7462   47.5461 C.ar    1  ZINC001345266033   -0.1100
      6 C6          0.4564    2.6016   46.1923 C.ar    1  ZINC001345266033   -0.0900
      7 C7          1.0562    3.1265   48.5169 C.ar    1  ZINC001345266033    0.1700
      8 N8          0.7111    3.2543   49.7754 N.ar    1  ZINC001345266033   -0.4800
      9 C9         -0.5145    3.0427   50.2254 C.ar    1  ZINC001345266033    0.0900
     10 C10        -1.5414    2.6616   49.3715 C.ar    1  ZINC001345266033   -0.0700
     11 C11        -2.9072    2.4266   49.8770 C.2     1  ZINC001345266033    0.2300
     12 N12        -3.6171    1.3307   49.7296 N.2     1  ZINC001345266033   -0.2600
     13 N13        -4.7619    1.4712   50.2962 N.2     1  ZINC001345266033   -0.3000
     14 C14        -4.8536    2.6641   50.8397 C.2     1  ZINC001345266033    0.3600
     15 N15        -5.9394    3.1683   51.5335 N.3     1  ZINC001345266033   -0.4600
     16 C16        -6.9664    3.6684   50.6116 C.3     1  ZINC001345266033    0.0600
     17 C17        -8.0486    4.4157   51.3935 C.3     1  ZINC001345266033   -0.1100
     18 C18        -8.7317    3.4439   52.3632 C.3     1  ZINC001345266033   -0.0800
     19 C19        -7.6543    2.7840   53.2302 C.3     1  ZINC001345266033   -0.1300
     20 C20        -7.3422    3.4209   54.5835 C.3     1  ZINC001345266033   -0.1600
     21 C21        -8.1008    2.0934   54.5176 C.3     1  ZINC001345266033   -0.1700
     22 C22        -6.4932    2.1606   52.4501 C.3     1  ZINC001345266033    0.1100
     23 N23        -3.6767    3.3115   50.5976 N.pl3   1  ZINC001345266033   -0.4600
     24 C24        -3.3118    4.6687   51.0113 C.3     1  ZINC001345266033    0.1000
     25 C25        -3.5829    4.8359   52.5078 C.3     1  ZINC001345266033   -0.1400
     26 H26        -4.6457    4.7153   52.7178 H       1  ZINC001345266033    0.1000
     27 C27        -3.0874    6.2186   52.9971 C.3     1  ZINC001345266033   -0.1500
     28 C28        -2.4592    5.8709   54.3707 C.3     1  ZINC001345266033    0.0500
     29 O29        -1.8466    4.5832   54.1446 O.3     1  ZINC001345266033   -0.3700
     30 C30        -2.7540    3.8242   53.3225 C.3     1  ZINC001345266033    0.0300
     31 H31        -0.2360    2.1141   44.2550 H       1  ZINC001345266033    0.1300
     32 H32        -2.5485    1.6962   44.9682 H       1  ZINC001345266033    0.1300
     33 H33        -3.1967    1.9339   47.3100 H       1  ZINC001345266033    0.1600
     34 H34         1.4690    2.7833   45.8637 H       1  ZINC001345266033    0.1400
     35 H35         2.0780    3.3161   48.2230 H       1  ZINC001345266033    0.1700
     36 H36        -0.7209    3.1685   51.2780 H       1  ZINC001345266033    0.1700
     37 H37        -6.5075    4.3456   49.8912 H       1  ZINC001345266033    0.0700
     38 H38        -7.4169    2.8293   50.0816 H       1  ZINC001345266033    0.0500
     39 H39        -7.5940    5.2315   51.9556 H       1  ZINC001345266033    0.0800
     40 H40        -8.7872    4.8174   50.7000 H       1  ZINC001345266033    0.0800
     41 H41        -9.4290    3.9902   52.9984 H       1  ZINC001345266033    0.0700
     42 H42        -9.2668    2.6798   51.7994 H       1  ZINC001345266033    0.0700
     43 H43        -6.3080    3.3932   54.9264 H       1  ZINC001345266033    0.0900
     44 H44        -7.9072    4.3100   54.8636 H       1  ZINC001345266033    0.0900
     45 H45        -9.1647    2.1091   54.7543 H       1  ZINC001345266033    0.1000
     46 H46        -7.5656    1.1923   54.8172 H       1  ZINC001345266033    0.1000
     47 H47        -6.8548    1.3062   51.8780 H       1  ZINC001345266033    0.0600
     48 H48        -5.7193    1.8352   53.1455 H       1  ZINC001345266033    0.0800
     49 H49        -2.2532    4.8368   50.8130 H       1  ZINC001345266033    0.1100
     50 H50        -3.9056    5.3912   50.4516 H       1  ZINC001345266033    0.1100
     51 H51        -2.3380    6.6257   52.3184 H       1  ZINC001345266033    0.0800
     52 H52        -3.9209    6.9112   53.1147 H       1  ZINC001345266033    0.0900
     53 H53        -1.7075    6.6103   54.6472 H       1  ZINC001345266033    0.1000
     54 H54        -3.2297    5.7999   55.1383 H       1  ZINC001345266033    0.0600
     55 H55        -3.4107    3.2240   53.9522 H       1  ZINC001345266033    0.0600
     56 H56        -2.1914    3.1781   52.6486 H       1  ZINC001345266033    0.0900
@<TRIPOS>BOND
     1     1     6   ar
     2     1     2   ar
     3     1    31    1
     4     2     3   ar
     5     2    32    1
     6     3     4   ar
     7     3    33    1
     8     4    10   ar
     9     4     5   ar
    10     5     6   ar
    11     5     7   ar
    12     6    34    1
    13     7     8   ar
    14     7    35    1
    15     8     9   ar
    16     9    10   ar
    17     9    36    1
    18    10    11    1
    19    11    23    1
    20    11    12    2
    21    12    13    1
    22    13    14    2
    23    14    15    1
    24    14    23    1
    25    15    22    1
    26    15    16    1
    27    16    17    1
    28    16    37    1
    29    16    38    1
    30    17    18    1
    31    17    39    1
    32    17    40    1
    33    18    19    1
    34    18    41    1
    35    18    42    1
    36    19    21    1
    37    19    20    1
    38    19    22    1
    39    20    21    1
    40    20    43    1
    41    20    44    1
    42    21    45    1
    43    21    46    1
    44    22    47    1
    45    22    48    1
    46    23    24    1
    47    24    25    1
    48    24    49    1
    49    24    50    1
    50    25    26    1
    51    25    30    1
    52    25    27    1
    53    27    28    1
    54    27    51    1
    55    27    52    1
    56    28    29    1
    57    28    53    1
    58    28    54    1
    59    29    30    1
    60    30    55    1
    61    30    56    1
@<TRIPOS>SUBSTRUCTURE
     1 ZINC001345266033        1 TEMP              0 ****  ****    0 ROOT


##########                                Name:    ZINC000547864253
##########                DOCK_Rotatable_Bonds:                   6
##########                         Heavy_Atoms:                  30
##########                    Molecular_Weight:             422.548
##########                DOCK_Rotatable_Bonds:                   6
##########                       Formal_Charge:           0.0300002
##########                     HBond_Acceptors:                   6
##########                        HBond_Donors:                   2
##########                         Heavy_Atoms:                  30
##########                          Grid_Score:          -29.955032
##########                     Grid_vdw_energy:          -28.841934
##########                      Grid_es_energy:           -1.113099
##########           Internal_energy_repulsive:           20.259916

@<TRIPOS>MOLECULE
ZINC000547864253
 56 60 1 0 0
SMALL
USER_CHARGES


@<TRIPOS>ATOM
      1 O1         -4.5858    1.8625   49.5644 O.2     1  ZINC000547864253   -0.5300
      2 C2         -4.1423    2.8240   50.1557 C.2     1  ZINC000547864253    0.5400
      3 N3         -2.8096    3.0059   50.2425 N.am    1  ZINC000547864253   -0.7200
      4 C4         -1.8969    2.0389   49.6277 C.3     1  ZINC000547864253    0.1300
      5 C5         -0.7098    2.7801   49.0091 C.3     1  ZINC000547864253    0.0200
      6 H6         -1.0761    3.5464   48.3259 H       1  ZINC000547864253    0.0900
      7 C7          0.1026    3.4272   50.1009 C.2     1  ZINC000547864253   -0.1600
      8 C8          0.0027    4.6971   50.5246 C.2     1  ZINC000547864253    0.0600
      9 N9          0.9015    4.9253   51.5308 N.pl3   1  ZINC000547864253   -0.5900
     10 C10         1.6201    3.7786   51.7857 C.ar    1  ZINC000547864253    0.1000
     11 C11         2.6342    3.4638   52.6838 C.ar    1  ZINC000547864253   -0.1300
     12 C12         3.1662    2.1928   52.6973 C.ar    1  ZINC000547864253   -0.1000
     13 C13         2.7002    1.2212   51.8228 C.ar    1  ZINC000547864253   -0.1400
     14 C14         1.7044    1.5087   50.9321 C.ar    1  ZINC000547864253   -0.0700
     15 C15         1.1468    2.7882   50.9055 C.ar    1  ZINC000547864253   -0.1000
     16 C16         0.1532    1.8034   48.2525 C.ar    1  ZINC000547864253   -0.0700
     17 C17        -0.1302    0.4512   48.2981 C.ar    1  ZINC000547864253   -0.1100
     18 C18         0.6614   -0.4447   47.6041 C.ar    1  ZINC000547864253   -0.1200
     19 C19         1.7362    0.0117   46.8642 C.ar    1  ZINC000547864253   -0.1200
     20 C20         2.0190    1.3641   46.8178 C.ar    1  ZINC000547864253   -0.1100
     21 C21         1.2248    2.2603   47.5083 C.ar    1  ZINC000547864253   -0.1200
     22 C22        -5.0813    3.8188   50.7881 C.3     1  ZINC000547864253   -0.1700
     23 H23        -5.3293    4.6859   50.1760 H       1  ZINC000547864253    0.1400
     24 C24        -4.9748    4.0283   52.2997 C.3     1  ZINC000547864253   -0.1300
     25 C25        -6.1711    3.2722   51.7143 C.3     1  ZINC000547864253   -0.1400
     26 C26        -7.5220    3.9888   51.7089 C.3     1  ZINC000547864253   -0.0700
     27 C27        -8.1746    3.8701   53.0878 C.3     1  ZINC000547864253   -0.6000
     28 S28        -8.4427    2.1162   53.4727 S.o2    1  ZINC000547864253    2.4200
     29 O29        -8.8559    2.0067   54.8279 O.2     1  ZINC000547864253   -0.9400
     30 O30        -9.2501    1.5457   52.4520 O.2     1  ZINC000547864253   -0.9300
     31 C31        -6.7603    1.4499   53.3237 C.3     1  ZINC000547864253   -0.6000
     32 C32        -6.2187    1.7584   51.9262 C.3     1  ZINC000547864253   -0.0700
     33 H33        -2.4549    3.7770   50.7119 H       1  ZINC000547864253    0.4000
     34 H34        -1.5364    1.3456   50.3875 H       1  ZINC000547864253    0.0800
     35 H35        -2.4239    1.4848   48.8509 H       1  ZINC000547864253    0.0700
     36 H36        -0.6850    5.4301   50.1296 H       1  ZINC000547864253    0.1700
     37 H37         1.0155    5.7691   51.9954 H       1  ZINC000547864253    0.4200
     38 H38         3.0039    4.2132   53.3682 H       1  ZINC000547864253    0.1200
     39 H39         3.9539    1.9504   53.3952 H       1  ZINC000547864253    0.1300
     40 H40         3.1282    0.2298   51.8461 H       1  ZINC000547864253    0.1200
     41 H41         1.3469    0.7475   50.2545 H       1  ZINC000547864253    0.1200
     42 H42        -0.9699    0.0946   48.8763 H       1  ZINC000547864253    0.1200
     43 H43         0.4404   -1.5012   47.6403 H       1  ZINC000547864253    0.1200
     44 H44         2.3550   -0.6882   46.3225 H       1  ZINC000547864253    0.1200
     45 H45         2.8588    1.7206   46.2399 H       1  ZINC000547864253    0.1200
     46 H46         1.4457    3.3168   47.4720 H       1  ZINC000547864253    0.1200
     47 H47        -4.2255    3.4468   52.8369 H       1  ZINC000547864253    0.1100
     48 H48        -5.1530    5.0333   52.6822 H       1  ZINC000547864253    0.1100
     49 H49        -7.3733    5.0413   51.4674 H       1  ZINC000547864253    0.0900
     50 H50        -8.1708    3.5340   50.9603 H       1  ZINC000547864253    0.0900
     51 H51        -7.5204    4.3119   53.8394 H       1  ZINC000547864253    0.1400
     52 H52        -9.1313    4.3925   53.0842 H       1  ZINC000547864253    0.1400
     53 H53        -6.1180    1.9119   54.0734 H       1  ZINC000547864253    0.1400
     54 H54        -6.7812    0.3708   53.4761 H       1  ZINC000547864253    0.1400
     55 H55        -6.8699    1.3077   51.1773 H       1  ZINC000547864253    0.0900
     56 H56        -5.2143    1.3466   51.8275 H       1  ZINC000547864253    0.0900
@<TRIPOS>BOND
     1     1     2    2
     2     2     3   am
     3     2    22    1
     4     3     4    1
     5     3    33    1
     6     4     5    1
     7     4    34    1
     8     4    35    1
     9     5     6    1
    10     5     7    1
    11     5    16    1
    12     7    15    1
    13     7     8    2
    14     8     9    1
    15     8    36    1
    16     9    10    1
    17     9    37    1
    18    10    15   ar
    19    10    11   ar
    20    11    12   ar
    21    11    38    1
    22    12    13   ar
    23    12    39    1
    24    13    14   ar
    25    13    40    1
    26    14    15   ar
    27    14    41    1
    28    16    21   ar
    29    16    17   ar
    30    17    18   ar
    31    17    42    1
    32    18    19   ar
    33    18    43    1
    34    19    20   ar
    35    19    44    1
    36    20    21   ar
    37    20    45    1
    38    21    46    1
    39    22    23    1
    40    22    25    1
    41    22    24    1
    42    24    25    1
    43    24    47    1
    44    24    48    1
    45    25    32    1
    46    25    26    1
    47    26    27    1
    48    26    49    1
    49    26    50    1
    50    27    28    1
    51    27    51    1
    52    27    52    1
    53    28    29    2
    54    28    30    2
    55    28    31    1
    56    31    32    1
    57    31    53    1
    58    31    54    1
    59    32    55    1
    60    32    56    1
@<TRIPOS>SUBSTRUCTURE
     1 ZINC000547864253        1 TEMP              0 ****  ****    0 ROOT


##########                                Name:    ZINC000774689801
##########                DOCK_Rotatable_Bonds:                   4
##########                         Heavy_Atoms:                  24
##########                    Molecular_Weight:             347.395
##########                DOCK_Rotatable_Bonds:                   4
##########                       Formal_Charge:         -0.00999961
##########                     HBond_Acceptors:                   8
##########                        HBond_Donors:                   1
##########                         Heavy_Atoms:                  24
##########                          Grid_Score:          -29.953609
##########                     Grid_vdw_energy:          -28.182543
##########                      Grid_es_energy:           -1.771066
##########           Internal_energy_repulsive:            9.186022

@<TRIPOS>MOLECULE
ZINC000774689801
 41 44 1 0 0
SMALL
USER_CHARGES


@<TRIPOS>ATOM
      1 C1         -3.7438    5.4634   51.7809 C.3     1  ZINC000774689801   -0.1200
      2 C2         -4.1757    4.3026   50.9223 C.2     1  ZINC000774689801    0.0600
      3 C3         -5.4615    4.0897   50.5994 C.2     1  ZINC000774689801   -0.2800
      4 C4         -6.5800    4.9328   51.0264 C.2     1  ZINC000774689801    0.5500
      5 O5         -6.7565    6.0181   50.5065 O.2     1  ZINC000774689801   -0.4900
      6 O6         -7.4148    4.5057   51.9962 O.3     1  ZINC000774689801   -0.3400
      7 C7         -6.9783    3.3701   52.7888 C.3     1  ZINC000774689801    0.0900
      8 C8         -7.8222    2.1448   52.4321 C.3     1  ZINC000774689801   -0.1300
      9 H9         -7.8322    1.9905   51.3531 H       1  ZINC000774689801    0.1200
     10 C10        -7.2831    0.8877   53.1534 C.3     1  ZINC000774689801   -0.1300
     11 C11        -8.5882    0.1309   53.4852 C.3     1  ZINC000774689801    0.1000
     12 N12        -9.6323    1.1603   53.5495 N.am    1  ZINC000774689801   -0.7400
     13 C13        -9.2321    2.3017   52.9576 C.2     1  ZINC000774689801    0.5200
     14 O14        -9.9028    3.3078   52.8639 O.2     1  ZINC000774689801   -0.5100
     15 S15        -5.6138    2.6593   49.5933 S.3     1  ZINC000774689801    0.3000
     16 C16        -3.8769    2.3817   49.6406 C.2     1  ZINC000774689801    0.1000
     17 C17        -3.2668    3.3814   50.4053 C.2     1  ZINC000774689801   -0.2500
     18 C18        -1.8008    3.3066   50.5535 C.2     1  ZINC000774689801    0.5700
     19 O19        -1.1984    4.1407   51.2056 O.2     1  ZINC000774689801   -0.5000
     20 N20        -1.1394    2.2914   49.9500 N.am    1  ZINC000774689801   -0.5500
     21 C21         0.3058    2.0058   49.9451 C.3     1  ZINC000774689801    0.0900
     22 C22         0.4363    0.5342   49.5013 C.3     1  ZINC000774689801   -0.1300
     23 C23        -0.8485    0.3408   48.6673 C.3     1  ZINC000774689801   -0.0800
     24 C24        -1.8204    1.3652   49.2288 C.2     1  ZINC000774689801    0.4200
     25 N25        -3.1178    1.4218   49.0846 N.2     1  ZINC000774689801   -0.5100
     26 H26        -3.5292    6.3240   51.1473 H       1  ZINC000774689801    0.0800
     27 H27        -4.5421    5.7161   52.4787 H       1  ZINC000774689801    0.1000
     28 H28        -2.8476    5.1898   52.3378 H       1  ZINC000774689801    0.0800
     29 H29        -5.9291    3.1623   52.5788 H       1  ZINC000774689801    0.0900
     30 H30        -7.0986    3.5984   53.8478 H       1  ZINC000774689801    0.0800
     31 H31        -6.6488    0.2994   52.4904 H       1  ZINC000774689801    0.1000
     32 H32        -6.7478    1.1595   54.0632 H       1  ZINC000774689801    0.0900
     33 H33        -8.8167   -0.5895   52.6997 H       1  ZINC000774689801    0.0800
     34 H34        -8.4972   -0.3745   54.4466 H       1  ZINC000774689801    0.0800
     35 H35       -10.5004    1.0343   53.9637 H       1  ZINC000774689801    0.4100
     36 H36         0.8165    2.6594   49.2379 H       1  ZINC000774689801    0.1000
     37 H37         0.7189    2.1357   50.9453 H       1  ZINC000774689801    0.1000
     38 H38         1.3252    0.3895   48.8872 H       1  ZINC000774689801    0.1100
     39 H39         0.4462   -0.1334   50.3628 H       1  ZINC000774689801    0.0900
     40 H40        -0.6523    0.5394   47.6136 H       1  ZINC000774689801    0.1200
     41 H41        -1.2400   -0.6680   48.7991 H       1  ZINC000774689801    0.1200
@<TRIPOS>BOND
     1     1     2    1
     2     1    26    1
     3     1    27    1
     4     1    28    1
     5     2    17    1
     6     2     3    2
     7     3     4    1
     8     3    15    1
     9     4     5    2
    10     4     6    1
    11     6     7    1
    12     7     8    1
    13     7    29    1
    14     7    30    1
    15     8     9    1
    16     8    13    1
    17     8    10    1
    18    10    11    1
    19    10    31    1
    20    10    32    1
    21    11    12    1
    22    11    33    1
    23    11    34    1
    24    12    13   am
    25    12    35    1
    26    13    14    2
    27    15    16    1
    28    16    25    1
    29    16    17    2
    30    17    18    1
    31    18    19    2
    32    18    20   am
    33    20    24    1
    34    20    21    1
    35    21    22    1
    36    21    36    1
    37    21    37    1
    38    22    23    1
    39    22    38    1
    40    22    39    1
    41    23    24    1
    42    23    40    1
    43    23    41    1
    44    24    25    2
@<TRIPOS>SUBSTRUCTURE
     1 ZINC000774689801        1 TEMP              0 ****  ****    0 ROOT


##########                                Name:    ZINC000768148687
##########                DOCK_Rotatable_Bonds:                   8
##########                         Heavy_Atoms:                  25
##########                    Molecular_Weight:             371.307
##########                DOCK_Rotatable_Bonds:                   8
##########                       Formal_Charge:         2.98023e-08
##########                     HBond_Acceptors:                  11
##########                        HBond_Donors:                   0
##########                         Heavy_Atoms:                  25
##########                          Grid_Score:          -29.921436
##########                     Grid_vdw_energy:          -28.756315
##########                      Grid_es_energy:           -1.165121
##########           Internal_energy_repulsive:            9.163139

@<TRIPOS>MOLECULE
ZINC000768148687
 43 44 1 0 0
SMALL
USER_CHARGES


@<TRIPOS>ATOM
      1 C1         -0.3432   -0.2170   49.4716 C.3     1  ZINC000768148687   -0.1800
      2 C2         -0.7669    1.0790   48.7776 C.3     1  ZINC000768148687    0.1100
      3 N3         -1.7123    1.8033   49.6307 N.pl3   1  ZINC000768148687   -0.3100
      4 N4         -3.0853    1.5509   49.7272 N.2     1  ZINC000768148687   -0.2000
      5 C5         -3.6099    2.3864   50.5804 C.2     1  ZINC000768148687    0.0200
      6 C6         -5.0627    2.4536   50.9752 C.3     1  ZINC000768148687    0.5500
      7 F7         -5.7948    1.5330   50.2178 F       1  ZINC000768148687   -0.1600
      8 F8         -5.1913    2.1464   52.3340 F       1  ZINC000768148687   -0.1600
      9 F9         -5.5506    3.7435   50.7404 F       1  ZINC000768148687   -0.1500
     10 C10        -2.5768    3.2177   51.0698 C.2     1  ZINC000768148687   -0.1800
     11 C11        -2.7205    4.3037   52.0543 C.2     1  ZINC000768148687    0.5300
     12 O12        -2.6702    5.4627   51.6923 O.2     1  ZINC000768148687   -0.4700
     13 O13        -2.9079    4.0122   53.3566 O.3     1  ZINC000768148687   -0.3400
     14 C14        -3.4326    5.0711   54.2002 C.3     1  ZINC000768148687    0.0200
     15 C15        -3.7442    4.5096   55.5889 C.3     1  ZINC000768148687    0.0600
     16 N16        -2.5088    4.0019   56.2004 N.3     1  ZINC000768148687   -0.5300
     17 C17        -2.8028    3.2169   57.4082 C.3     1  ZINC000768148687    0.0100
     18 C18        -1.4961    2.6588   57.9782 C.3     1  ZINC000768148687    0.0600
     19 O19        -0.5963    3.7391   58.2403 O.3     1  ZINC000768148687   -0.3800
     20 C20        -0.2876    4.5242   57.0855 C.3     1  ZINC000768148687    0.0600
     21 C21        -1.5821    5.1014   56.5065 C.3     1  ZINC000768148687    0.0100
     22 C22        -1.4062    2.8169   50.4557 C.2     1  ZINC000768148687    0.0600
     23 C23        -0.0388    3.4144   50.6658 C.3     1  ZINC000768148687    0.3400
     24 F24        -0.0052    4.7040   50.1246 F       1  ZINC000768148687   -0.1700
     25 F25         0.2376    3.4762   52.0357 F       1  ZINC000768148687   -0.1800
     26 H26         0.3602   -0.7559   48.8368 H       1  ZINC000768148687    0.0900
     27 H27         0.1334    0.0193   50.4230 H       1  ZINC000768148687    0.0700
     28 H28        -1.2213   -0.8377   49.6494 H       1  ZINC000768148687    0.0700
     29 H29         0.1112    1.6998   48.5998 H       1  ZINC000768148687    0.1100
     30 H30        -1.2435    0.8427   47.8262 H       1  ZINC000768148687    0.1200
     31 H31        -2.6924    5.8664   54.2876 H       1  ZINC000768148687    0.0800
     32 H32        -4.3446    5.4707   53.7568 H       1  ZINC000768148687    0.0800
     33 H33        -4.1617    5.2985   56.2145 H       1  ZINC000768148687    0.1100
     34 H34        -4.4655    3.6974   55.4988 H       1  ZINC000768148687    0.0900
     35 H35        -3.2799    3.8566   58.1507 H       1  ZINC000768148687    0.0500
     36 H36        -3.4700    2.3934   57.1536 H       1  ZINC000768148687    0.0900
     37 H37        -1.7025    2.1239   58.9052 H       1  ZINC000768148687    0.1000
     38 H38        -1.0460    1.9771   57.2564 H       1  ZINC000768148687    0.0600
     39 H39         0.3800    5.3386   57.3669 H       1  ZINC000768148687    0.1000
     40 H40         0.1975    3.8969   56.3378 H       1  ZINC000768148687    0.0600
     41 H41        -1.3581    5.6534   55.5937 H       1  ZINC000768148687    0.0800
     42 H42        -2.0397    5.7711   57.2346 H       1  ZINC000768148687    0.0700
     43 H43         0.7088    2.7936   50.1720 H       1  ZINC000768148687    0.1500
@<TRIPOS>BOND
     1     1     2    1
     2     1    26    1
     3     1    27    1
     4     1    28    1
     5     2     3    1
     6     2    29    1
     7     2    30    1
     8     3    22    1
     9     3     4    1
    10     4     5    2
    11     5     6    1
    12     5    10    1
    13     6     7    1
    14     6     8    1
    15     6     9    1
    16    10    11    1
    17    10    22    2
    18    11    12    2
    19    11    13    1
    20    13    14    1
    21    14    15    1
    22    14    31    1
    23    14    32    1
    24    15    16    1
    25    15    33    1
    26    15    34    1
    27    16    21    1
    28    16    17    1
    29    17    18    1
    30    17    35    1
    31    17    36    1
    32    18    19    1
    33    18    37    1
    34    18    38    1
    35    19    20    1
    36    20    21    1
    37    20    39    1
    38    20    40    1
    39    21    41    1
    40    21    42    1
    41    22    23    1
    42    23    24    1
    43    23    25    1
    44    23    43    1
@<TRIPOS>SUBSTRUCTURE
     1 ZINC000768148687        1 TEMP              0 ****  ****    0 ROOT


##########                                Name:    ZINC001122903793
##########                DOCK_Rotatable_Bonds:                   4
##########                         Heavy_Atoms:                  25
##########                    Molecular_Weight:             399.968
##########                DOCK_Rotatable_Bonds:                   4
##########                       Formal_Charge:           0.0100003
##########                     HBond_Acceptors:                   9
##########                        HBond_Donors:                   0
##########                         Heavy_Atoms:                  25
##########                          Grid_Score:          -29.895781
##########                     Grid_vdw_energy:          -28.095013
##########                      Grid_es_energy:           -1.800767
##########           Internal_energy_repulsive:           18.931190

@<TRIPOS>MOLECULE
ZINC001122903793
 47 50 1 0 0
SMALL
USER_CHARGES


@<TRIPOS>ATOM
      1 C1         -7.0067    0.6753   66.4473 C.3     1  ZINC001122903793   -0.1400
      2 C2         -7.3740    1.3782   65.1388 C.3     1  ZINC001122903793   -0.0400
      3 H3         -6.5440    1.3012   64.4364 H       1  ZINC001122903793    0.1000
      4 S4         -7.7363    3.1303   65.4670 S.3     1  ZINC001122903793   -0.2500
      5 C5         -8.4020    3.6823   63.8668 C.3     1  ZINC001122903793   -0.0800
      6 C6         -9.5109    2.7139   63.4412 C.3     1  ZINC001122903793    0.0700
      7 N7         -8.9570    1.3696   63.2646 N.3     1  ZINC001122903793   -0.4800
      8 C8         -9.8100    0.5756   62.5157 C.2     1  ZINC001122903793    0.3700
      9 N9        -11.0634    0.3023   62.7939 N.2     1  ZINC001122903793   -0.2900
     10 N10       -11.5610   -0.4630   61.8895 N.2     1  ZINC001122903793   -0.2400
     11 C11       -10.6532   -0.7261   60.9756 C.2     1  ZINC001122903793    0.2600
     12 C12       -10.8323   -1.5652   59.7794 C.2     1  ZINC001122903793   -0.1600
     13 C13       -12.0108   -1.8635   59.1829 C.2     1  ZINC001122903793    0.1600
     14 Cl14      -13.5380   -1.2782   59.7650 Cl      1  ZINC001122903793    0.0300
     15 N15       -11.8978   -2.6350   58.1249 N.2     1  ZINC001122903793   -0.4600
     16 C16       -10.7078   -3.0077   57.7876 C.2     1  ZINC001122903793    0.0300
     17 S17        -9.5508   -2.3545   58.8631 S.3     1  ZINC001122903793    0.2200
     18 N18        -9.5046   -0.0639   61.3472 N.pl3   1  ZINC001122903793   -0.4600
     19 C19        -8.2209   -0.0532   60.6412 C.3     1  ZINC001122903793    0.1100
     20 C20        -8.2997    0.9087   59.4542 C.3     1  ZINC001122903793    0.0700
     21 H21        -9.2189    0.7414   58.8927 H       1  ZINC001122903793    0.0800
     22 C22        -8.2296    2.3765   59.9458 C.3     1  ZINC001122903793   -0.1500
     23 C23        -7.6822    3.0864   58.6776 C.3     1  ZINC001122903793   -0.1500
     24 C24        -6.7472    2.0134   58.0793 C.3     1  ZINC001122903793    0.0500
     25 O25        -7.1566    0.7420   58.6004 O.3     1  ZINC001122903793   -0.3700
     26 C26        -8.6215    0.7239   64.5356 C.3     1  ZINC001122903793    0.1000
     27 H27        -9.4548    0.8352   65.2293 H       1  ZINC001122903793    0.0800
     28 C28        -8.3552   -0.7635   64.2954 C.3     1  ZINC001122903793   -0.1500
     29 H29        -6.7968   -0.3757   66.2487 H       1  ZINC001122903793    0.0800
     30 H30        -6.1233    1.1472   66.8776 H       1  ZINC001122903793    0.0700
     31 H31        -7.8382    0.7539   67.1477 H       1  ZINC001122903793    0.0700
     32 H32        -8.8120    4.6871   63.9677 H       1  ZINC001122903793    0.1200
     33 H33        -7.6081    3.6810   63.1199 H       1  ZINC001122903793    0.0900
     34 H34       -10.2843    2.6890   64.2089 H       1  ZINC001122903793    0.0700
     35 H35        -9.9463    3.0526   62.5011 H       1  ZINC001122903793    0.0900
     36 H36       -10.4763   -3.6392   56.9428 H       1  ZINC001122903793    0.2100
     37 H37        -7.4346    0.2733   61.3219 H       1  ZINC001122903793    0.1200
     38 H38        -7.9959   -1.0571   60.2812 H       1  ZINC001122903793    0.1000
     39 H39        -9.2190    2.7503   60.2091 H       1  ZINC001122903793    0.0900
     40 H40        -7.5379    2.4780   60.7822 H       1  ZINC001122903793    0.0800
     41 H41        -8.4910    3.3248   57.9870 H       1  ZINC001122903793    0.0800
     42 H42        -7.1226    3.9826   58.9457 H       1  ZINC001122903793    0.0900
     43 H43        -6.8342    2.0115   56.9927 H       1  ZINC001122903793    0.0700
     44 H44        -5.7165    2.2182   58.3687 H       1  ZINC001122903793    0.0700
     45 H45        -7.5237   -0.8760   63.5995 H       1  ZINC001122903793    0.0600
     46 H46        -8.1053   -1.2451   65.2407 H       1  ZINC001122903793    0.0800
     47 H47        -9.2465   -1.2289   63.8747 H       1  ZINC001122903793    0.0600
@<TRIPOS>BOND
     1     1     2    1
     2     1    29    1
     3     1    30    1
     4     1    31    1
     5     2     3    1
     6     2    26    1
     7     2     4    1
     8     4     5    1
     9     5     6    1
    10     5    32    1
    11     5    33    1
    12     6     7    1
    13     6    34    1
    14     6    35    1
    15     7     8    1
    16     7    26    1
    17     8    18    1
    18     8     9    2
    19     9    10    1
    20    10    11    2
    21    11    12    1
    22    11    18    1
    23    12    17    1
    24    12    13    2
    25    13    14    1
    26    13    15    1
    27    15    16    2
    28    16    17    1
    29    16    36    1
    30    18    19    1
    31    19    20    1
    32    19    37    1
    33    19    38    1
    34    20    21    1
    35    20    25    1
    36    20    22    1
    37    22    23    1
    38    22    39    1
    39    22    40    1
    40    23    24    1
    41    23    41    1
    42    23    42    1
    43    24    25    1
    44    24    43    1
    45    24    44    1
    46    26    27    1
    47    26    28    1
    48    28    45    1
    49    28    46    1
    50    28    47    1
@<TRIPOS>SUBSTRUCTURE
     1 ZINC001122903793        1 TEMP              0 ****  ****    0 ROOT


##########                                Name:    ZINC001079355651
##########                DOCK_Rotatable_Bonds:                   5
##########                         Heavy_Atoms:                  25
##########                    Molecular_Weight:             353.851
##########                DOCK_Rotatable_Bonds:                   5
##########                       Formal_Charge:           0.0199997
##########                     HBond_Acceptors:                   5
##########                        HBond_Donors:                   1
##########                         Heavy_Atoms:                  25
##########                          Grid_Score:          -29.893902
##########                     Grid_vdw_energy:          -29.587099
##########                      Grid_es_energy:           -0.306804
##########           Internal_energy_repulsive:            4.676096

@<TRIPOS>MOLECULE
ZINC001079355651
 45 47 1 0 0
SMALL
USER_CHARGES


@<TRIPOS>ATOM
      1 C1         -5.1686    6.1197   53.0233 C.3     1  ZINC001079355651   -0.1500
      2 C2         -4.7476    4.6718   52.7635 C.3     1  ZINC001079355651   -0.1000
      3 H3         -5.0115    4.0431   53.6138 H       1  ZINC001079355651    0.0900
      4 C4         -3.2300    4.5955   52.4907 C.3     1  ZINC001079355651    0.0300
      5 N5         -3.0901    3.5530   51.4417 N.3     1  ZINC001079355651   -0.5100
      6 C6         -1.8162    3.6955   50.7243 C.3     1  ZINC001079355651    0.1600
      7 C7         -1.7051    2.6378   49.7066 C.1     1  ZINC001079355651   -0.1400
      8 C8         -1.6166    1.7943   48.8950 C.1     1  ZINC001079355651   -0.1300
      9 C9         -1.5086    0.7654   47.9049 C.ar    1  ZINC001079355651    0.0300
     10 C10        -1.2353   -0.5484   48.2870 C.ar    1  ZINC001079355651   -0.0900
     11 C11        -1.1323   -1.5359   47.3285 C.ar    1  ZINC001079355651   -0.1000
     12 C12        -1.2993   -1.2261   45.9910 C.ar    1  ZINC001079355651   -0.1000
     13 C13        -1.5701    0.0758   45.6045 C.ar    1  ZINC001079355651   -0.0300
     14 Cl14       -1.7775    0.4552   43.9232 Cl      1  ZINC001079355651   -0.0600
     15 C15        -1.6818    1.0715   46.5545 C.ar    1  ZINC001079355651   -0.0900
     16 C16        -4.2418    3.7917   50.5342 C.3     1  ZINC001079355651    0.0200
     17 C17        -5.4153    4.1422   51.4777 C.3     1  ZINC001079355651    0.1500
     18 H18        -6.0424    4.9140   51.0314 H       1  ZINC001079355651    0.1000
     19 N19        -6.2104    2.9461   51.7670 N.am    1  ZINC001079355651   -0.7100
     20 C20        -7.4921    3.0691   52.1652 C.2     1  ZINC001079355651    0.5600
     21 O21        -7.9887    4.1719   52.2830 O.2     1  ZINC001079355651   -0.5300
     22 C22        -8.2956    1.8596   52.4594 C.ar    1  ZINC001079355651   -0.0900
     23 C23        -7.7090    0.5905   52.4622 C.ar    1  ZINC001079355651   -0.1400
     24 C24        -8.4955   -0.5102   52.7418 C.ar    1  ZINC001079355651    0.1000
     25 N25        -9.7805   -0.3753   53.0030 N.ar    1  ZINC001079355651   -0.4700
     26 C26       -10.3727    0.8024   53.0107 C.ar    1  ZINC001079355651    0.1000
     27 C27        -9.6603    1.9563   52.7476 C.ar    1  ZINC001079355651   -0.1200
     28 H28        -6.2485    6.1644   53.1641 H       1  ZINC001079355651    0.0600
     29 H29        -4.6697    6.4879   53.9196 H       1  ZINC001079355651    0.0700
     30 H30        -4.8875    6.7383   52.1710 H       1  ZINC001079355651    0.0600
     31 H31        -2.8606    5.5539   52.1259 H       1  ZINC001079355651    0.0600
     32 H32        -2.6959    4.3001   53.3939 H       1  ZINC001079355651    0.0900
     33 H33        -1.7792    4.6713   50.2399 H       1  ZINC001079355651    0.0700
     34 H34        -0.9901    3.6088   51.4301 H       1  ZINC001079355651    0.1100
     35 H35        -1.1043   -0.7921   49.3309 H       1  ZINC001079355651    0.1300
     36 H36        -0.9204   -2.5530   47.6234 H       1  ZINC001079355651    0.1400
     37 H37        -1.2175   -2.0026   45.2448 H       1  ZINC001079355651    0.1400
     38 H38        -1.8932    2.0866   46.2525 H       1  ZINC001079355651    0.1400
     39 H39        -4.0308    4.6243   49.8630 H       1  ZINC001079355651    0.0600
     40 H40        -4.4695    2.8910   49.9640 H       1  ZINC001079355651    0.0900
     41 H41        -5.8144    2.0658   51.6718 H       1  ZINC001079355651    0.4000
     42 H42        -6.6569    0.4724   52.2487 H       1  ZINC001079355651    0.1400
     43 H43        -8.0517   -1.4948   52.7460 H       1  ZINC001079355651    0.1600
     44 H44       -11.4284    0.8662   53.2297 H       1  ZINC001079355651    0.1700
     45 H45       -10.1521    2.9179   52.7556 H       1  ZINC001079355651    0.1500
@<TRIPOS>BOND
     1     1     2    1
     2     1    28    1
     3     1    29    1
     4     1    30    1
     5     2     3    1
     6     2    17    1
     7     2     4    1
     8     4     5    1
     9     4    31    1
    10     4    32    1
    11     5     6    1
    12     5    16    1
    13     6     7    1
    14     6    33    1
    15     6    34    1
    16     7     8    3
    17     8     9    1
    18     9    15   ar
    19     9    10   ar
    20    10    11   ar
    21    10    35    1
    22    11    12   ar
    23    11    36    1
    24    12    13   ar
    25    12    37    1
    26    13    14    1
    27    13    15   ar
    28    15    38    1
    29    16    17    1
    30    16    39    1
    31    16    40    1
    32    17    18    1
    33    17    19    1
    34    19    20   am
    35    19    41    1
    36    20    21    2
    37    20    22    1
    38    22    27   ar
    39    22    23   ar
    40    23    24   ar
    41    23    42    1
    42    24    25   ar
    43    24    43    1
    44    25    26   ar
    45    26    27   ar
    46    26    44    1
    47    27    45    1
@<TRIPOS>SUBSTRUCTURE
     1 ZINC001079355651        1 TEMP              0 ****  ****    0 ROOT


##########                                Name:    ZINC001139743874
##########                DOCK_Rotatable_Bonds:                   5
##########                         Heavy_Atoms:                  28
##########                    Molecular_Weight:             382.506
##########                DOCK_Rotatable_Bonds:                   5
##########                       Formal_Charge:           0.0199992
##########                     HBond_Acceptors:                   6
##########                        HBond_Donors:                   0
##########                         Heavy_Atoms:                  28
##########                          Grid_Score:          -29.893564
##########                     Grid_vdw_energy:          -29.422863
##########                      Grid_es_energy:           -0.470701
##########           Internal_energy_repulsive:           16.801702

@<TRIPOS>MOLECULE
ZINC001139743874
 58 61 1 0 0
SMALL
USER_CHARGES


@<TRIPOS>ATOM
      1 C1         -1.3630    0.9280   47.2750 C.3     1  ZINC001139743874   -0.1800
      2 C2         -0.9865    1.9699   48.3304 C.3     1  ZINC001139743874    0.1400
      3 C3         -0.4132    1.2648   49.5612 C.3     1  ZINC001139743874   -0.1800
      4 C4          0.0621    2.9234   47.7542 C.3     1  ZINC001139743874   -0.1400
      5 O5         -2.1684    2.7226   48.7105 O.3     1  ZINC001139743874   -0.3600
      6 C6         -2.1181    3.3911   49.8781 C.2     1  ZINC001139743874    0.6500
      7 O7         -1.2834    4.2580   50.0463 O.2     1  ZINC001139743874   -0.5700
      8 N8         -2.9934    3.0987   50.8603 N.am    1  ZINC001139743874   -0.5900
      9 C9         -3.9811    2.0825   50.6796 C.3     1  ZINC001139743874    0.1000
     10 C10        -5.3019    2.5382   49.9967 C.3     1  ZINC001139743874   -0.1300
     11 C11        -5.7035    3.9406   50.5386 C.3     1  ZINC001139743874   -0.0900
     12 C12        -5.4224    4.0730   51.9994 C.3     1  ZINC001139743874   -0.0800
     13 C13        -6.5529    4.6700   52.8458 C.3     1  ZINC001139743874    0.0100
     14 N14        -6.9652    3.2693   53.0929 N.3     1  ZINC001139743874   -0.4700
     15 C15        -7.3308    3.0689   54.5015 C.3     1  ZINC001139743874    0.0600
     16 C16        -8.1629    1.8193   54.6316 C.ar    1  ZINC001139743874   -0.1200
     17 C17        -8.5428    1.1134   53.4917 C.ar    1  ZINC001139743874    0.1500
     18 N18        -9.2662    0.0226   53.5679 N.ar    1  ZINC001139743874   -0.4600
     19 C19        -9.6708   -0.4605   54.7448 C.ar    1  ZINC001139743874    0.0800
     20 C20       -10.4479   -1.6336   54.8234 C.ar    1  ZINC001139743874   -0.0400
     21 C21       -10.8287   -2.0745   56.0578 C.ar    1  ZINC001139743874   -0.1600
     22 C22       -10.4488   -1.3683   57.1980 C.ar    1  ZINC001139743874    0.1300
     23 N23        -9.7259   -0.2774   57.1219 N.ar    1  ZINC001139743874   -0.4700
     24 C24        -9.3211    0.2056   55.9447 C.ar    1  ZINC001139743874    0.0800
     25 C25        -8.5397    1.3755   55.8665 C.ar    1  ZINC001139743874   -0.0400
     26 C26        -5.5873    2.7947   52.8296 C.3     1  ZINC001139743874    0.0000
     27 C27        -4.0722    4.7675   52.2021 C.3     1  ZINC001139743874   -0.1300
     28 C28        -2.9484    3.8273   52.1674 C.3     1  ZINC001139743874    0.1400
     29 H29        -2.1100    0.2486   47.6855 H       1  ZINC001139743874    0.0900
     30 H30        -1.7714    1.4303   46.3982 H       1  ZINC001139743874    0.0600
     31 H31        -0.4757    0.3629   46.9896 H       1  ZINC001139743874    0.0700
     32 H32         0.4741    0.6997   49.2759 H       1  ZINC001139743874    0.0700
     33 H33        -0.1448    2.0070   50.3131 H       1  ZINC001139743874    0.0600
     34 H34        -1.1602    0.5854   49.9717 H       1  ZINC001139743874    0.0900
     35 H35        -0.3463    3.4258   46.8773 H       1  ZINC001139743874    0.0700
     36 H36         0.3304    3.6656   48.5060 H       1  ZINC001139743874    0.0700
     37 H37         0.9494    2.3583   47.4688 H       1  ZINC001139743874    0.0800
     38 H38        -3.5438    1.2852   50.0785 H       1  ZINC001139743874    0.0700
     39 H39        -4.2278    1.6691   51.6576 H       1  ZINC001139743874    0.0900
     40 H40        -5.1536    2.5936   48.9182 H       1  ZINC001139743874    0.0700
     41 H41        -6.0927    1.8219   50.2195 H       1  ZINC001139743874    0.0800
     42 H42        -5.1428    4.7036   49.9986 H       1  ZINC001139743874    0.0600
     43 H43        -6.7685    4.0961   50.3664 H       1  ZINC001139743874    0.0700
     44 H44        -6.2062    5.1906   53.7385 H       1  ZINC001139743874    0.0700
     45 H45        -7.2766    5.2464   52.2695 H       1  ZINC001139743874    0.0900
     46 H46        -6.4260    2.9670   55.1008 H       1  ZINC001139743874    0.0600
     47 H47        -7.9050    3.9260   54.8533 H       1  ZINC001139743874    0.0900
     48 H48        -8.2339    1.4739   52.5217 H       1  ZINC001139743874    0.1700
     49 H49       -10.7348   -2.1693   53.9306 H       1  ZINC001139743874    0.1500
     50 H50       -11.4246   -2.9704   56.1511 H       1  ZINC001139743874    0.1500
     51 H51       -10.7579   -1.7286   58.1681 H       1  ZINC001139743874    0.1700
     52 H52        -8.2499    1.9092   56.7596 H       1  ZINC001139743874    0.1400
     53 H53        -5.5427    1.8787   52.2403 H       1  ZINC001139743874    0.1000
     54 H54        -4.9560    2.7625   53.7175 H       1  ZINC001139743874    0.0700
     55 H55        -3.9366    5.5111   51.4168 H       1  ZINC001139743874    0.0700
     56 H56        -4.0774    5.2736   53.1675 H       1  ZINC001139743874    0.0800
     57 H57        -3.0366    3.1189   52.9912 H       1  ZINC001139743874    0.0800
     58 H58        -2.0093    4.3741   52.2517 H       1  ZINC001139743874    0.1000
@<TRIPOS>BOND
     1     1     2    1
     2     1    29    1
     3     1    30    1
     4     1    31    1
     5     2     3    1
     6     2     4    1
     7     2     5    1
     8     3    32    1
     9     3    33    1
    10     3    34    1
    11     4    35    1
    12     4    36    1
    13     4    37    1
    14     5     6    1
    15     6     7    2
    16     6     8   am
    17     8    28    1
    18     8     9    1
    19     9    10    1
    20     9    38    1
    21     9    39    1
    22    10    11    1
    23    10    40    1
    24    10    41    1
    25    11    12    1
    26    11    42    1
    27    11    43    1
    28    12    26    1
    29    12    13    1
    30    12    27    1
    31    13    14    1
    32    13    44    1
    33    13    45    1
    34    14    15    1
    35    14    26    1
    36    15    16    1
    37    15    46    1
    38    15    47    1
    39    16    25   ar
    40    16    17   ar
    41    17    18   ar
    42    17    48    1
    43    18    19   ar
    44    19    24   ar
    45    19    20   ar
    46    20    21   ar
    47    20    49    1
    48    21    22   ar
    49    21    50    1
    50    22    23   ar
    51    22    51    1
    52    23    24   ar
    53    24    25   ar
    54    25    52    1
    55    26    53    1
    56    26    54    1
    57    27    28    1
    58    27    55    1
    59    27    56    1
    60    28    57    1
    61    28    58    1
@<TRIPOS>SUBSTRUCTURE
     1 ZINC001139743874        1 TEMP              0 ****  ****    0 ROOT


##########                                Name:    ZINC000347662449
##########                DOCK_Rotatable_Bonds:                   5
##########                         Heavy_Atoms:                  23
##########                    Molecular_Weight:              327.45
##########                DOCK_Rotatable_Bonds:                   5
##########                       Formal_Charge:                0.03
##########                     HBond_Acceptors:                   5
##########                        HBond_Donors:                   0
##########                         Heavy_Atoms:                  23
##########                          Grid_Score:          -29.891010
##########                     Grid_vdw_energy:          -28.967283
##########                      Grid_es_energy:           -0.923727
##########           Internal_energy_repulsive:           10.149967

@<TRIPOS>MOLECULE
ZINC000347662449
 44 46 1 0 0
SMALL
USER_CHARGES


@<TRIPOS>ATOM
      1 C1          4.1525   -0.1595   47.2572 C.2     1  ZINC000347662449   -0.1800
      2 C2          2.9956    0.4245   47.0651 C.2     1  ZINC000347662449   -0.1700
      3 C3          2.9021    1.6364   46.1744 C.3     1  ZINC000347662449    0.1600
      4 N4          1.5655    1.7021   45.5781 N.am    1  ZINC000347662449   -0.6200
      5 C5          1.2151    1.1423   44.2674 C.3     1  ZINC000347662449    0.1100
      6 C6         -0.3272    1.0549   44.2556 C.3     1  ZINC000347662449   -0.1100
      7 C7         -0.7131    2.1566   45.2696 C.3     1  ZINC000347662449   -0.1200
      8 H8         -0.9082    3.0974   44.7549 H       1  ZINC000347662449    0.1400
      9 S9         -2.1597    1.6519   46.2334 S.3     1  ZINC000347662449    0.0300
     10 C10        -1.4234    0.4388   47.2780 C.2     1  ZINC000347662449    0.1900
     11 N11        -0.9360   -0.7163   46.8889 N.2     1  ZINC000347662449   -0.4500
     12 C12        -0.4563   -1.3791   47.9549 C.2     1  ZINC000347662449   -0.0100
     13 C13        -0.6466   -0.6199   49.0474 C.2     1  ZINC000347662449   -0.0400
     14 N14        -1.2573    0.5426   48.6277 N.pl3   1  ZINC000347662449   -0.4000
     15 C15        -1.6417    1.6220   49.4354 C.ar    1  ZINC000347662449    0.1100
     16 C16        -2.9547    2.0721   49.4159 C.ar    1  ZINC000347662449   -0.1100
     17 C17        -3.3306    3.1361   50.2128 C.ar    1  ZINC000347662449   -0.1000
     18 C18        -2.4006    3.7524   51.0293 C.ar    1  ZINC000347662449   -0.0800
     19 C19        -2.8140    4.9125   51.8979 C.3     1  ZINC000347662449   -0.1200
     20 C20        -1.0917    3.3062   51.0508 C.ar    1  ZINC000347662449   -0.0700
     21 C21        -0.0810    3.9808   51.9422 C.3     1  ZINC000347662449   -0.1200
     22 C22        -0.7113    2.2394   50.2607 C.ar    1  ZINC000347662449   -0.1100
     23 C23         0.5013    2.2778   46.1635 C.2     1  ZINC000347662449    0.5300
     24 O24         0.5145    2.8218   47.2474 O.2     1  ZINC000347662449   -0.4900
     25 H25         5.0391    0.2276   46.7771 H       1  ZINC000347662449    0.1000
     26 H26         4.2203   -1.0254   47.8990 H       1  ZINC000347662449    0.1000
     27 H27         2.1091    0.0373   47.5452 H       1  ZINC000347662449    0.1100
     28 H28         3.0814    2.5354   46.7640 H       1  ZINC000347662449    0.0900
     29 H29         3.6494    1.5651   45.3842 H       1  ZINC000347662449    0.0900
     30 H30         1.5617    1.8009   43.4710 H       1  ZINC000347662449    0.0800
     31 H31         1.6501    0.1494   44.1529 H       1  ZINC000347662449    0.0900
     32 H32        -0.7231    1.2802   43.2653 H       1  ZINC000347662449    0.1100
     33 H33        -0.6651    0.0760   44.5957 H       1  ZINC000347662449    0.0900
     34 H34         0.0041   -2.3559   47.9367 H       1  ZINC000347662449    0.1800
     35 H35        -0.3705   -0.8712   50.0609 H       1  ZINC000347662449    0.1800
     36 H36        -3.6816    1.5912   48.7781 H       1  ZINC000347662449    0.1300
     37 H37        -4.3519    3.4869   50.1978 H       1  ZINC000347662449    0.1300
     38 H38        -3.1480    4.5403   52.8664 H       1  ZINC000347662449    0.0800
     39 H39        -1.9650    5.5814   52.0388 H       1  ZINC000347662449    0.0700
     40 H40        -3.6279    5.4547   51.4166 H       1  ZINC000347662449    0.0700
     41 H41        -0.0720    3.4919   52.9163 H       1  ZINC000347662449    0.0800
     42 H42         0.9081    3.9081   51.4900 H       1  ZINC000347662449    0.0700
     43 H43        -0.3481    5.0304   52.0649 H       1  ZINC000347662449    0.0800
     44 H44         0.3108    1.8912   50.2780 H       1  ZINC000347662449    0.1300
@<TRIPOS>BOND
     1     1     2    2
     2     1    25    1
     3     1    26    1
     4     2     3    1
     5     2    27    1
     6     3     4    1
     7     3    28    1
     8     3    29    1
     9     4    23   am
    10     4     5    1
    11     5     6    1
    12     5    30    1
    13     5    31    1
    14     6     7    1
    15     6    32    1
    16     6    33    1
    17     7     8    1
    18     7     9    1
    19     7    23    1
    20     9    10    1
    21    10    14    1
    22    10    11    2
    23    11    12    1
    24    12    13    2
    25    12    34    1
    26    13    14    1
    27    13    35    1
    28    14    15    1
    29    15    22   ar
    30    15    16   ar
    31    16    17   ar
    32    16    36    1
    33    17    18   ar
    34    17    37    1
    35    18    19    1
    36    18    20   ar
    37    19    38    1
    38    19    39    1
    39    19    40    1
    40    20    21    1
    41    20    22   ar
    42    21    41    1
    43    21    42    1
    44    21    43    1
    45    22    44    1
    46    23    24    2
@<TRIPOS>SUBSTRUCTURE
     1 ZINC000347662449        1 TEMP              0 ****  ****    0 ROOT


##########                                Name:    ZINC000516003207
##########                DOCK_Rotatable_Bonds:                   5
##########                         Heavy_Atoms:                  24
##########                    Molecular_Weight:             342.462
##########                DOCK_Rotatable_Bonds:                   5
##########                       Formal_Charge:          -0.0200001
##########                     HBond_Acceptors:                   5
##########                        HBond_Donors:                   1
##########                         Heavy_Atoms:                  24
##########                          Grid_Score:          -29.886696
##########                     Grid_vdw_energy:          -29.204220
##########                      Grid_es_energy:           -0.682476
##########           Internal_energy_repulsive:            9.378708

@<TRIPOS>MOLECULE
ZINC000516003207
 46 49 1 0 0
SMALL
USER_CHARGES


@<TRIPOS>ATOM
      1 C1          3.1081    0.4124   47.4920 C.3     1  ZINC000516003207    0.0300
      2 O2          2.0968    1.3667   47.8214 O.3     1  ZINC000516003207   -0.3600
      3 C3          1.2122    0.9412   48.8598 C.3     1  ZINC000516003207    0.0900
      4 H4          1.5553    0.0387   49.3656 H       1  ZINC000516003207    0.0800
      5 C5          0.8006    2.0702   49.8221 C.3     1  ZINC000516003207   -0.1700
      6 C6         -0.3833    2.3450   48.8772 C.3     1  ZINC000516003207    0.1500
      7 H7         -0.1571    3.0641   48.0900 H       1  ZINC000516003207    0.1200
      8 N8         -1.6368    2.6404   49.5756 N.am    1  ZINC000516003207   -0.7200
      9 C9         -1.7849    3.8103   50.2283 C.2     1  ZINC000516003207    0.5600
     10 O10        -0.8792    4.6209   50.2360 O.2     1  ZINC000516003207   -0.5300
     11 C11        -3.0494    4.1078   50.9347 C.ar    1  ZINC000516003207   -0.1400
     12 C12        -3.2898    5.3914   51.4286 C.ar    1  ZINC000516003207   -0.0800
     13 C13        -4.4702    5.6695   52.0887 C.ar    1  ZINC000516003207   -0.1200
     14 C14        -5.4193    4.6818   52.2642 C.ar    1  ZINC000516003207   -0.0800
     15 C15        -5.1912    3.3956   51.7751 C.ar    1  ZINC000516003207   -0.0300
     16 C16        -6.2126    2.3364   51.9651 C.2     1  ZINC000516003207    0.1100
     17 C17        -7.4360    2.5803   52.4765 C.2     1  ZINC000516003207   -0.2600
     18 S18        -8.3160    1.0549   52.5244 S.3     1  ZINC000516003207    0.1400
     19 C19        -6.9684    0.2415   51.8585 C.2     1  ZINC000516003207    0.0600
     20 C20        -6.9169   -1.2351   51.5612 C.3     1  ZINC000516003207   -0.0800
     21 N21        -6.0048    1.0682   51.6417 N.2     1  ZINC000516003207   -0.4700
     22 C22        -4.0068    3.1090   51.1043 C.ar    1  ZINC000516003207   -0.0300
     23 C23        -0.2546    0.8847   48.4317 C.3     1  ZINC000516003207   -0.1100
     24 C24        -0.6517    0.4508   47.0202 C.3     1  ZINC000516003207   -0.1200
     25 C25        -0.9901   -0.9213   47.6308 C.3     1  ZINC000516003207   -0.1400
     26 C26        -1.1964   -0.1924   48.9710 C.3     1  ZINC000516003207   -0.1200
     27 H27         2.6393   -0.5126   47.1562 H       1  ZINC000516003207    0.0400
     28 H28         3.7379    0.8103   46.6962 H       1  ZINC000516003207    0.0900
     29 H29         3.7187    0.2115   48.3724 H       1  ZINC000516003207    0.0400
     30 H30         0.4987    1.7150   50.8074 H       1  ZINC000516003207    0.0900
     31 H31         1.5202    2.8875   49.8686 H       1  ZINC000516003207    0.0800
     32 H32        -2.3601    1.9941   49.5683 H       1  ZINC000516003207    0.4000
     33 H33        -2.5514    6.1679   51.2943 H       1  ZINC000516003207    0.1300
     34 H34        -4.6519    6.6636   52.4698 H       1  ZINC000516003207    0.1400
     35 H35        -6.3404    4.9056   52.7818 H       1  ZINC000516003207    0.1300
     36 H36        -7.8099    3.5405   52.7998 H       1  ZINC000516003207    0.1800
     37 H37        -7.8662   -1.6943   51.8365 H       1  ZINC000516003207    0.0800
     38 H38        -6.7357   -1.3852   50.4969 H       1  ZINC000516003207    0.0900
     39 H39        -6.1115   -1.6934   52.1351 H       1  ZINC000516003207    0.0900
     40 H40        -3.8260    2.1145   50.7240 H       1  ZINC000516003207    0.1500
     41 H41        -1.5193    0.9809   46.6274 H       1  ZINC000516003207    0.0800
     42 H42         0.1830    0.4240   46.3197 H       1  ZINC000516003207    0.0800
     43 H43        -1.9021   -1.3638   47.2303 H       1  ZINC000516003207    0.0700
     44 H44        -0.1496   -1.6153   47.6367 H       1  ZINC000516003207    0.0800
     45 H45        -0.7968   -0.7330   49.8291 H       1  ZINC000516003207    0.0700
     46 H46        -2.2171    0.1569   49.1266 H       1  ZINC000516003207    0.0900
@<TRIPOS>BOND
     1     1     2    1
     2     1    27    1
     3     1    28    1
     4     1    29    1
     5     2     3    1
     6     3     4    1
     7     3    23    1
     8     3     5    1
     9     5     6    1
    10     5    30    1
    11     5    31    1
    12     6     7    1
    13     6     8    1
    14     6    23    1
    15     8     9   am
    16     8    32    1
    17     9    10    2
    18     9    11    1
    19    11    22   ar
    20    11    12   ar
    21    12    13   ar
    22    12    33    1
    23    13    14   ar
    24    13    34    1
    25    14    15   ar
    26    14    35    1
    27    15    16    1
    28    15    22   ar
    29    16    21    1
    30    16    17    2
    31    17    18    1
    32    17    36    1
    33    18    19    1
    34    19    20    1
    35    19    21    2
    36    20    37    1
    37    20    38    1
    38    20    39    1
    39    22    40    1
    40    23    26    1
    41    23    24    1
    42    24    25    1
    43    24    41    1
    44    24    42    1
    45    25    26    1
    46    25    43    1
    47    25    44    1
    48    26    45    1
    49    26    46    1
@<TRIPOS>SUBSTRUCTURE
     1 ZINC000516003207        1 TEMP              0 ****  ****    0 ROOT


##########                                Name:    ZINC000950547210
##########                DOCK_Rotatable_Bonds:                   5
##########                         Heavy_Atoms:                  25
##########                    Molecular_Weight:              346.47
##########                DOCK_Rotatable_Bonds:                   5
##########                       Formal_Charge:         5.58794e-07
##########                     HBond_Acceptors:                   5
##########                        HBond_Donors:                   1
##########                         Heavy_Atoms:                  25
##########                          Grid_Score:          -29.846062
##########                     Grid_vdw_energy:          -30.254162
##########                      Grid_es_energy:            0.408101
##########           Internal_energy_repulsive:           19.274759

@<TRIPOS>MOLECULE
ZINC000950547210
 55 58 1 0 0
SMALL
USER_CHARGES


@<TRIPOS>ATOM
      1 O1         -1.9190    0.4895   49.5395 O.2     1  ZINC000950547210   -0.5200
      2 C2         -2.1164    1.2631   48.6265 C.2     1  ZINC000950547210    0.5200
      3 N3         -3.0475    2.2294   48.7513 N.am    1  ZINC000950547210   -0.7300
      4 C4         -3.8254    2.3418   49.9876 C.3     1  ZINC000950547210    0.1300
      5 H5         -3.5037    1.5737   50.6909 H       1  ZINC000950547210    0.0900
      6 C6         -3.6057    3.7246   50.6055 C.3     1  ZINC000950547210   -0.1300
      7 C7         -4.3920    3.8313   51.9141 C.3     1  ZINC000950547210   -0.1300
      8 C8         -5.8865    3.6641   51.6222 C.3     1  ZINC000950547210    0.1000
      9 N9         -6.0885    2.4017   50.8981 N.am    1  ZINC000950547210   -0.6100
     10 C10        -6.9685    1.4853   51.3479 C.2     1  ZINC000950547210    0.5600
     11 O11        -7.1266    0.4442   50.7394 O.2     1  ZINC000950547210   -0.5200
     12 C12        -7.7376    1.7442   52.5748 C.2     1  ZINC000950547210   -0.1400
     13 C13        -8.7655    2.5719   52.5205 C.2     1  ZINC000950547210   -0.1500
     14 C14        -9.6024    2.9025   53.7240 C.3     1  ZINC000950547210    0.0900
     15 O15        -9.3621    1.9534   54.7648 O.3     1  ZINC000950547210   -0.3700
     16 C16        -7.9695    1.7656   55.0437 C.3     1  ZINC000950547210    0.0600
     17 C17        -7.3302    1.0526   53.8469 C.3     1  ZINC000950547210   -0.1100
     18 C18        -5.3134    2.1569   49.6741 C.3     1  ZINC000950547210    0.1000
     19 C19        -1.3161    1.1475   47.3548 C.3     1  ZINC000950547210   -0.1000
     20 H20        -1.9763    1.2764   46.4970 H       1  ZINC000950547210    0.1000
     21 C21        -0.6587   -0.2325   47.2896 C.3     1  ZINC000950547210   -0.1100
     22 C22         0.8613   -0.0708   47.2240 C.3     1  ZINC000950547210   -0.0900
     23 C23         1.2355    0.7319   45.9764 C.3     1  ZINC000950547210   -0.1100
     24 C24         0.5781    2.1118   46.0417 C.3     1  ZINC000950547210   -0.1100
     25 C25        -0.2343    2.2293   47.3328 C.3     1  ZINC000950547210   -0.0600
     26 C26         0.6923    2.0484   48.5368 C.3     1  ZINC000950547210   -0.1300
     27 C27         1.3497    0.6683   48.4715 C.3     1  ZINC000950547210   -0.1200
     28 H28        -3.2026    2.8505   48.0225 H       1  ZINC000950547210    0.4000
     29 H29        -2.5440    3.8677   50.8070 H       1  ZINC000950547210    0.0800
     30 H30        -3.9499    4.4913   49.9114 H       1  ZINC000950547210    0.0700
     31 H31        -4.0654    3.0491   52.5995 H       1  ZINC000950547210    0.0700
     32 H32        -4.2164    4.8078   52.3655 H       1  ZINC000950547210    0.0900
     33 H33        -6.4415    3.6402   52.5600 H       1  ZINC000950547210    0.0900
     34 H34        -6.2347    4.4962   51.0103 H       1  ZINC000950547210    0.0700
     35 H35        -9.0139    3.0293   51.5742 H       1  ZINC000950547210    0.1200
     36 H36        -9.3467    3.9008   54.0789 H       1  ZINC000950547210    0.0700
     37 H37       -10.6568    2.8780   53.4487 H       1  ZINC000950547210    0.1100
     38 H38        -7.4925    2.7338   55.1955 H       1  ZINC000950547210    0.0600
     39 H39        -7.8544    1.1530   55.9379 H       1  ZINC000950547210    0.1000
     40 H40        -7.6604    0.0141   53.8244 H       1  ZINC000950547210    0.0900
     41 H41        -6.2449    1.0863   53.9417 H       1  ZINC000950547210    0.0900
     42 H42        -5.6145    2.8660   48.9029 H       1  ZINC000950547210    0.0700
     43 H43        -5.4908    1.1391   49.3267 H       1  ZINC000950547210    0.1000
     44 H44        -0.9253   -0.8044   48.1783 H       1  ZINC000950547210    0.0700
     45 H45        -1.0067   -0.7591   46.4008 H       1  ZINC000950547210    0.0700
     46 H46         1.3296   -1.0540   47.1776 H       1  ZINC000950547210    0.0700
     47 H47         2.3184    0.8471   45.9298 H       1  ZINC000950547210    0.0600
     48 H48         0.8876    0.2053   45.0877 H       1  ZINC000950547210    0.0600
     49 H49         1.3489    2.8825   46.0260 H       1  ZINC000950547210    0.0700
     50 H50        -0.0820    2.2408   45.1840 H       1  ZINC000950547210    0.0600
     51 H51        -0.7026    3.2124   47.3792 H       1  ZINC000950547210    0.0800
     52 H52         1.4631    2.8190   48.5211 H       1  ZINC000950547210    0.0600
     53 H53         0.1136    2.1320   49.4566 H       1  ZINC000950547210    0.0900
     54 H54         1.0831    0.0965   49.3603 H       1  ZINC000950547210    0.0600
     55 H55         2.4326    0.7835   48.4248 H       1  ZINC000950547210    0.0600
@<TRIPOS>BOND
     1     1     2    2
     2     2     3   am
     3     2    19    1
     4     3     4    1
     5     3    28    1
     6     4     5    1
     7     4    18    1
     8     4     6    1
     9     6     7    1
    10     6    29    1
    11     6    30    1
    12     7     8    1
    13     7    31    1
    14     7    32    1
    15     8     9    1
    16     8    33    1
    17     8    34    1
    18     9    10   am
    19     9    18    1
    20    10    11    2
    21    10    12    1
    22    12    17    1
    23    12    13    2
    24    13    14    1
    25    13    35    1
    26    14    15    1
    27    14    36    1
    28    14    37    1
    29    15    16    1
    30    16    17    1
    31    16    38    1
    32    16    39    1
    33    17    40    1
    34    17    41    1
    35    18    42    1
    36    18    43    1
    37    19    20    1
    38    19    25    1
    39    19    21    1
    40    21    22    1
    41    21    44    1
    42    21    45    1
    43    22    27    1
    44    22    23    1
    45    22    46    1
    46    23    24    1
    47    23    47    1
    48    23    48    1
    49    24    25    1
    50    24    49    1
    51    24    50    1
    52    25    26    1
    53    25    51    1
    54    26    27    1
    55    26    52    1
    56    26    53    1
    57    27    54    1
    58    27    55    1
@<TRIPOS>SUBSTRUCTURE
     1 ZINC000950547210        1 TEMP              0 ****  ****    0 ROOT


##########                                Name:    ZINC000538774026
##########                DOCK_Rotatable_Bonds:                  10
##########                         Heavy_Atoms:                  29
##########                    Molecular_Weight:             414.496
##########                DOCK_Rotatable_Bonds:                  10
##########                       Formal_Charge:            0.049999
##########                     HBond_Acceptors:                   9
##########                        HBond_Donors:                   2
##########                         Heavy_Atoms:                  29
##########                          Grid_Score:          -29.843540
##########                     Grid_vdw_energy:          -29.308872
##########                      Grid_es_energy:           -0.534667
##########           Internal_energy_repulsive:           26.937944

@<TRIPOS>MOLECULE
ZINC000538774026
 61 62 1 0 0
SMALL
USER_CHARGES


@<TRIPOS>ATOM
      1 C1         -2.3036    1.3551   47.5994 C.3     1  ZINC000538774026   -0.1500
      2 C2         -2.4896    1.6107   49.0964 C.3     1  ZINC000538774026   -0.1100
      3 C3         -1.1201    1.7526   49.7636 C.3     1  ZINC000538774026   -0.1400
      4 C4         -3.2910    2.8983   49.2981 C.3     1  ZINC000538774026    0.1400
      5 N5         -3.6820    3.0149   50.7051 N.pl3   1  ZINC000538774026   -0.3400
      6 N6         -2.9822    3.7089   51.7005 N.2     1  ZINC000538774026   -0.2500
      7 C7         -3.6383    3.5881   52.8261 C.2     1  ZINC000538774026    0.0500
      8 C8         -4.7818    2.8116   52.5892 C.2     1  ZINC000538774026    0.0800
      9 N9         -5.7521    2.4513   53.5443 N.am    1  ZINC000538774026   -0.6600
     10 C10        -6.1833    3.3591   54.4424 C.2     1  ZINC000538774026    0.7100
     11 O11        -5.7359    4.4897   54.4269 O.2     1  ZINC000538774026   -0.5700
     12 N12        -7.1106    3.0138   55.3574 N.am    1  ZINC000538774026   -0.7300
     13 C13        -7.5781    4.0001   56.3347 C.3     1  ZINC000538774026    0.1600
     14 C14        -9.0298    3.6966   56.7111 C.3     1  ZINC000538774026   -0.1300
     15 C15        -9.1165    2.2953   57.3193 C.3     1  ZINC000538774026   -0.1000
     16 C16        -8.2400    2.2276   58.5715 C.3     1  ZINC000538774026   -0.0800
     17 C17        -8.3256    0.8473   59.1705 C.2     1  ZINC000538774026    0.4700
     18 O18        -7.4147    0.0674   59.0230 O.2     1  ZINC000538774026   -0.5000
     19 O19        -9.4136    0.4846   59.8679 O.3     1  ZINC000538774026   -0.3500
     20 C20       -10.0703   -0.7481   59.4709 C.3     1  ZINC000538774026    0.1200
     21 C21       -11.5136   -0.7435   59.9786 C.3     1  ZINC000538774026   -0.1800
     22 C22       -10.0667   -0.8593   57.9449 C.3     1  ZINC000538774026   -0.1400
     23 C23        -9.3224   -1.9404   60.0708 C.3     1  ZINC000538774026   -0.1800
     24 C24        -6.7885    2.5311   58.1950 C.3     1  ZINC000538774026   -0.1100
     25 C25        -6.7016    3.9324   57.5869 C.3     1  ZINC000538774026   -0.1300
     26 C26        -4.7905    2.4741   51.2745 C.2     1  ZINC000538774026   -0.0500
     27 C27        -5.8352    1.6428   50.5756 C.3     1  ZINC000538774026    0.3500
     28 F28        -6.0920    0.4898   51.3252 F       1  ZINC000538774026   -0.1900
     29 F29        -7.0130    2.3867   50.4459 F       1  ZINC000538774026   -0.1900
     30 H30        -1.7325    0.4379   47.4556 H       1  ZINC000538774026    0.0600
     31 H31        -3.2792    1.2541   47.1241 H       1  ZINC000538774026    0.0600
     32 H32        -1.7663    2.1914   47.1520 H       1  ZINC000538774026    0.0600
     33 H33        -3.0268    0.7745   49.5438 H       1  ZINC000538774026    0.0800
     34 H34        -0.5829    2.5889   49.3163 H       1  ZINC000538774026    0.0600
     35 H35        -1.2526    1.9348   50.8301 H       1  ZINC000538774026    0.0600
     36 H36        -0.5491    0.8353   49.6199 H       1  ZINC000538774026    0.0600
     37 H37        -2.6779    3.7553   49.0192 H       1  ZINC000538774026    0.1000
     38 H38        -4.1841    2.8720   48.6739 H       1  ZINC000538774026    0.1000
     39 H39        -3.3484    4.0134   53.7755 H       1  ZINC000538774026    0.2100
     40 H40        -6.1099    1.5498   53.5560 H       1  ZINC000538774026    0.4100
     41 H41        -7.4684    2.1123   55.3691 H       1  ZINC000538774026    0.4000
     42 H42        -7.5163    4.9983   55.9015 H       1  ZINC000538774026    0.1000
     43 H43        -9.3775    4.4303   57.4382 H       1  ZINC000538774026    0.0800
     44 H44        -9.6541    3.7448   55.8191 H       1  ZINC000538774026    0.0800
     45 H45       -10.1507    2.0791   57.5875 H       1  ZINC000538774026    0.0700
     46 H46        -8.7687    1.5615   56.5922 H       1  ZINC000538774026    0.0700
     47 H47        -8.5879    2.9613   59.2986 H       1  ZINC000538774026    0.1100
     48 H48       -12.0463    0.1060   59.5512 H       1  ZINC000538774026    0.0600
     49 H49       -12.0065   -1.6689   59.6806 H       1  ZINC000538774026    0.0700
     50 H50       -11.5160   -0.6643   61.0657 H       1  ZINC000538774026    0.0800
     51 H51        -9.0385   -0.8625   57.5832 H       1  ZINC000538774026    0.0700
     52 H52       -10.5597   -1.7846   57.6469 H       1  ZINC000538774026    0.0800
     53 H53       -10.5995   -0.0098   57.5175 H       1  ZINC000538774026    0.0700
     54 H54        -9.3248   -1.8612   61.1579 H       1  ZINC000538774026    0.0800
     55 H55        -9.8153   -2.8658   59.7728 H       1  ZINC000538774026    0.0700
     56 H56        -8.2941   -1.9437   59.7091 H       1  ZINC000538774026    0.0600
     57 H57        -6.1641    2.4828   59.0871 H       1  ZINC000538774026    0.0800
     58 H58        -6.4407    1.7973   57.4679 H       1  ZINC000538774026    0.0600
     59 H59        -5.6675    4.1485   57.3188 H       1  ZINC000538774026    0.0800
     60 H60        -7.0495    4.6661   58.3140 H       1  ZINC000538774026    0.0900
     61 H61        -5.4732    1.3604   49.5870 H       1  ZINC000538774026    0.1300
@<TRIPOS>BOND
     1     1     2    1
     2     1    30    1
     3     1    31    1
     4     1    32    1
     5     2     3    1
     6     2     4    1
     7     2    33    1
     8     3    34    1
     9     3    35    1
    10     3    36    1
    11     4     5    1
    12     4    37    1
    13     4    38    1
    14     5    26    1
    15     5     6    1
    16     6     7    2
    17     7     8    1
    18     7    39    1
    19     8     9    1
    20     8    26    2
    21     9    10   am
    22     9    40    1
    23    10    11    2
    24    10    12   am
    25    12    13    1
    26    12    41    1
    27    13    25    1
    28    13    14    1
    29    13    42    1
    30    14    15    1
    31    14    43    1
    32    14    44    1
    33    15    16    1
    34    15    45    1
    35    15    46    1
    36    16    17    1
    37    16    24    1
    38    16    47    1
    39    17    18    2
    40    17    19    1
    41    19    20    1
    42    20    21    1
    43    20    22    1
    44    20    23    1
    45    21    48    1
    46    21    49    1
    47    21    50    1
    48    22    51    1
    49    22    52    1
    50    22    53    1
    51    23    54    1
    52    23    55    1
    53    23    56    1
    54    24    25    1
    55    24    57    1
    56    24    58    1
    57    25    59    1
    58    25    60    1
    59    26    27    1
    60    27    28    1
    61    27    29    1
    62    27    61    1
@<TRIPOS>SUBSTRUCTURE
     1 ZINC000538774026        1 TEMP              0 ****  ****    0 ROOT


##########                                Name:    ZINC001053792610
##########                DOCK_Rotatable_Bonds:                   5
##########                         Heavy_Atoms:                  25
##########                    Molecular_Weight:             347.374
##########                DOCK_Rotatable_Bonds:                   5
##########                       Formal_Charge:          -0.0400001
##########                     HBond_Acceptors:                   9
##########                        HBond_Donors:                   2
##########                         Heavy_Atoms:                  25
##########                          Grid_Score:          -29.793751
##########                     Grid_vdw_energy:          -28.317945
##########                      Grid_es_energy:           -1.475806
##########           Internal_energy_repulsive:            5.505356

@<TRIPOS>MOLECULE
ZINC001053792610
 46 49 1 0 0
SMALL
USER_CHARGES


@<TRIPOS>ATOM
      1 C1         -0.3074    0.1042   46.6862 C.3     1  ZINC001053792610   -0.1000
      2 C2         -0.9807    0.9309   47.7514 C.ar    1  ZINC001053792610    0.0800
      3 C3         -2.3085    1.2926   47.6101 C.ar    1  ZINC001053792610    0.0600
      4 N4         -2.8989    2.0176   48.5441 N.ar    1  ZINC001053792610   -0.4200
      5 C5         -2.2210    2.3968   49.6129 C.ar    1  ZINC001053792610    0.0800
      6 C6         -2.8944    3.2231   50.6782 C.3     1  ZINC001053792610    0.0700
      7 N7         -4.1075    2.5343   51.1384 N.3     1  ZINC001053792610   -0.4500
      8 C8         -5.3150    3.1258   50.5292 C.3     1  ZINC001053792610   -0.0100
      9 C9         -5.9883    3.0077   51.8951 C.3     1  ZINC001053792610    0.0800
     10 C10        -4.5614    3.0724   52.4360 C.3     1  ZINC001053792610   -0.0100
     11 C11        -6.8904    4.1894   52.2843 C.3     1  ZINC001053792610   -0.1500
     12 C12        -8.3041    3.5437   52.2414 C.3     1  ZINC001053792610    0.1100
     13 H13        -8.9831    4.0390   52.9355 H       1  ZINC001053792610    0.1200
     14 N14        -8.8471    3.5525   50.8807 N.am    1  ZINC001053792610   -0.7100
     15 C15        -9.6091    4.5838   50.4658 C.2     1  ZINC001053792610    0.5000
     16 O16        -9.8441    5.5054   51.2185 O.2     1  ZINC001053792610   -0.5100
     17 C17       -10.1690    4.5920   49.0668 C.3     1  ZINC001053792610    0.0800
     18 H18       -10.2395    3.5763   48.6778 H       1  ZINC001053792610    0.1300
     19 C19       -11.5483    5.2788   49.0398 C.3     1  ZINC001053792610    0.0500
     20 O20       -11.3567    6.4200   48.1544 O.3     1  ZINC001053792610   -0.3200
     21 C21       -10.0933    6.4365   47.7149 C.2     1  ZINC001053792610    0.6500
     22 O22        -9.6651    7.2865   46.9597 O.2     1  ZINC001053792610   -0.5100
     23 N23        -9.3409    5.4273   48.1836 N.am    1  ZINC001053792610   -0.7100
     24 C24        -7.9853    2.0998   52.7068 C.3     1  ZINC001053792610    0.0400
     25 O25        -6.6972    1.7974   52.1411 O.3     1  ZINC001053792610   -0.3300
     26 C26        -0.8928    2.0350   49.7542 C.ar    1  ZINC001053792610    0.0600
     27 N27        -0.3041    1.3057   48.8230 N.ar    1  ZINC001053792610   -0.4400
     28 H28        -0.4350   -0.9542   46.9130 H       1  ZINC001053792610    0.0800
     29 H29        -0.7558    0.3248   45.7175 H       1  ZINC001053792610    0.0800
     30 H30         0.7555    0.3442   46.6577 H       1  ZINC001053792610    0.0800
     31 H31        -2.8624    0.9828   46.7363 H       1  ZINC001053792610    0.1700
     32 H32        -2.2127    3.3585   51.5180 H       1  ZINC001053792610    0.1000
     33 H33        -3.1628    4.1964   50.2677 H       1  ZINC001053792610    0.0600
     34 H34        -5.1762    4.1557   50.2005 H       1  ZINC001053792610    0.0800
     35 H35        -5.7694    2.4956   49.7647 H       1  ZINC001053792610    0.0900
     36 H36        -4.3827    2.3975   53.2730 H       1  ZINC001053792610    0.1000
     37 H37        -4.2158    4.0877   52.6304 H       1  ZINC001053792610    0.0800
     38 H38        -6.6551    4.5451   53.2873 H       1  ZINC001053792610    0.1000
     39 H39        -6.8091    4.9973   51.5571 H       1  ZINC001053792610    0.1000
     40 H40        -8.6581    2.8161   50.2784 H       1  ZINC001053792610    0.4000
     41 H41       -12.3031    4.6042   48.6358 H       1  ZINC001053792610    0.1200
     42 H42       -11.8283    5.6129   50.0388 H       1  ZINC001053792610    0.1100
     43 H43        -8.4055    5.2771   47.9751 H       1  ZINC001053792610    0.4400
     44 H44        -7.9406    2.0544   53.7949 H       1  ZINC001053792610    0.0800
     45 H45        -8.7365    1.4062   52.3291 H       1  ZINC001053792610    0.0900
     46 H46        -0.3386    2.3451   50.6278 H       1  ZINC001053792610    0.1600
@<TRIPOS>BOND
     1     1     2    1
     2     1    28    1
     3     1    29    1
     4     1    30    1
     5     2    27   ar
     6     2     3   ar
     7     3     4   ar
     8     3    31    1
     9     4     5   ar
    10     5     6    1
    11     5    26   ar
    12     6     7    1
    13     6    32    1
    14     6    33    1
    15     7    10    1
    16     7     8    1
    17     8     9    1
    18     8    34    1
    19     8    35    1
    20     9    25    1
    21     9    10    1
    22     9    11    1
    23    10    36    1
    24    10    37    1
    25    11    12    1
    26    11    38    1
    27    11    39    1
    28    12    13    1
    29    12    14    1
    30    12    24    1
    31    14    15   am
    32    14    40    1
    33    15    16    2
    34    15    17    1
    35    17    18    1
    36    17    23    1
    37    17    19    1
    38    19    20    1
    39    19    41    1
    40    19    42    1
    41    20    21    1
    42    21    22    2
    43    21    23   am
    44    23    43    1
    45    24    25    1
    46    24    44    1
    47    24    45    1
    48    26    27   ar
    49    26    46    1
@<TRIPOS>SUBSTRUCTURE
     1 ZINC001053792610        1 TEMP              0 ****  ****    0 ROOT


##########                                Name:    ZINC000888733009
##########                DOCK_Rotatable_Bonds:                   6
##########                         Heavy_Atoms:                  25
##########                    Molecular_Weight:             360.434
##########                DOCK_Rotatable_Bonds:                   6
##########                       Formal_Charge:        -1.02073e-06
##########                     HBond_Acceptors:                   7
##########                        HBond_Donors:                   2
##########                         Heavy_Atoms:                  25
##########                          Grid_Score:          -29.779606
##########                     Grid_vdw_energy:          -28.956827
##########                      Grid_es_energy:           -0.822778
##########           Internal_energy_repulsive:           22.826412

@<TRIPOS>MOLECULE
ZINC000888733009
 45 48 1 0 0
SMALL
USER_CHARGES


@<TRIPOS>ATOM
      1 C1         -8.8510    2.3878   53.8971 C.3     1  ZINC000888733009   -0.1500
      2 C2         -8.2136    2.5435   52.5149 C.3     1  ZINC000888733009    0.0700
      3 H3         -8.7658    1.9630   51.7759 H       1  ZINC000888733009    0.0700
      4 C4         -6.7320    2.0979   52.5519 C.3     1  ZINC000888733009   -0.1300
      5 C5         -6.0315    3.0936   51.6177 C.3     1  ZINC000888733009   -0.1100
      6 C6         -4.7878    3.7745   52.1835 C.3     1  ZINC000888733009   -0.1300
      7 C7         -4.1927    3.6673   50.7674 C.3     1  ZINC000888733009    0.1200
      8 N8         -2.7766    3.2918   50.7538 N.am    1  ZINC000888733009   -0.7100
      9 C9         -2.2256    2.7812   49.6348 C.2     1  ZINC000888733009    0.5900
     10 O10        -2.9040    2.6336   48.6351 O.2     1  ZINC000888733009   -0.5600
     11 C11        -0.8091    2.4040   49.6217 C.2     1  ZINC000888733009   -0.2400
     12 C12        -0.1901    1.8169   48.5482 C.2     1  ZINC000888733009    0.0800
     13 N13        -0.8143    1.5081   47.3509 N.am    1  ZINC000888733009   -0.6100
     14 C14        -0.0854    1.0770   46.3024 C.2     1  ZINC000888733009    0.6000
     15 O15         1.1211    0.9575   46.4081 O.2     1  ZINC000888733009   -0.4900
     16 C16        -0.7458    0.7519   45.0348 C.2     1  ZINC000888733009   -0.0900
     17 C17        -0.1230    0.3794   43.8777 C.2     1  ZINC000888733009   -0.1000
     18 C18        -1.1328    0.1672   42.9262 C.2     1  ZINC000888733009   -0.2300
     19 C19        -2.3128    0.4162   43.5362 C.2     1  ZINC000888733009    0.0100
     20 O20        -2.0758    0.7626   44.8081 O.3     1  ZINC000888733009   -0.1600
     21 S21         1.4533    1.5198   48.8892 S.3     1  ZINC000888733009    0.3000
     22 C22         1.3203    2.1932   50.5041 C.2     1  ZINC000888733009   -0.2800
     23 C23         0.0863    2.6166   50.7377 C.2     1  ZINC000888733009   -0.0900
     24 C24        -5.1466    2.4810   50.5351 C.3     1  ZINC000888733009   -0.1400
     25 C25        -7.1411    4.0314   51.1238 C.3     1  ZINC000888733009    0.0700
     26 O26        -8.1748    3.9368   52.1332 O.3     1  ZINC000888733009   -0.3700
     27 H27        -9.8851    2.7305   53.8611 H       1  ZINC000888733009    0.0600
     28 H28        -8.8258    1.3390   54.1927 H       1  ZINC000888733009    0.0700
     29 H29        -8.2960    2.9830   54.6222 H       1  ZINC000888733009    0.0600
     30 H30        -6.3334    2.1758   53.5635 H       1  ZINC000888733009    0.0800
     31 H31        -6.6282    1.0804   52.1751 H       1  ZINC000888733009    0.0800
     32 H32        -4.9604    4.8004   52.5091 H       1  ZINC000888733009    0.0800
     33 H33        -4.2609    3.1757   52.9263 H       1  ZINC000888733009    0.0900
     34 H34        -4.4072    4.5307   50.1377 H       1  ZINC000888733009    0.1200
     35 H35        -2.2357    3.4106   51.5501 H       1  ZINC000888733009    0.4000
     36 H36        -1.7761    1.6021   47.2671 H       1  ZINC000888733009    0.4400
     37 H37         0.9404    0.2698   43.7244 H       1  ZINC000888733009    0.1700
     38 H38        -0.9931   -0.1375   41.8995 H       1  ZINC000888733009    0.1600
     39 H39        -3.2867    0.3434   43.0752 H       1  ZINC000888733009    0.2200
     40 H40         2.1347    2.2577   51.2104 H       1  ZINC000888733009    0.1700
     41 H41        -0.2214    3.0672   51.6697 H       1  ZINC000888733009    0.1500
     42 H42        -4.7212    1.5164   50.8118 H       1  ZINC000888733009    0.0900
     43 H43        -5.6054    2.4755   49.5463 H       1  ZINC000888733009    0.0800
     44 H44        -6.7710    5.0541   51.0523 H       1  ZINC000888733009    0.0900
     45 H45        -7.5218    3.6954   50.1593 H       1  ZINC000888733009    0.0700
@<TRIPOS>BOND
     1     1     2    1
     2     1    27    1
     3     1    28    1
     4     1    29    1
     5     2     3    1
     6     2    26    1
     7     2     4    1
     8     4     5    1
     9     4    30    1
    10     4    31    1
    11     5    24    1
    12     5     6    1
    13     5    25    1
    14     6     7    1
    15     6    32    1
    16     6    33    1
    17     7     8    1
    18     7    24    1
    19     7    34    1
    20     8     9   am
    21     8    35    1
    22     9    10    2
    23     9    11    1
    24    11    23    1
    25    11    12    2
    26    12    13    1
    27    12    21    1
    28    13    14   am
    29    13    36    1
    30    14    15    2
    31    14    16    1
    32    16    20    1
    33    16    17    2
    34    17    18    1
    35    17    37    1
    36    18    19    2
    37    18    38    1
    38    19    20    1
    39    19    39    1
    40    21    22    1
    41    22    23    2
    42    22    40    1
    43    23    41    1
    44    24    42    1
    45    24    43    1
    46    25    26    1
    47    25    44    1
    48    25    45    1
@<TRIPOS>SUBSTRUCTURE
     1 ZINC000888733009        1 TEMP              0 ****  ****    0 ROOT


##########                                Name:    ZINC000194290865
##########                DOCK_Rotatable_Bonds:                   7
##########                         Heavy_Atoms:                  28
##########                    Molecular_Weight:             387.479
##########                DOCK_Rotatable_Bonds:                   7
##########                       Formal_Charge:          -0.0400003
##########                     HBond_Acceptors:                   7
##########                        HBond_Donors:                   0
##########                         Heavy_Atoms:                  28
##########                          Grid_Score:          -29.755001
##########                     Grid_vdw_energy:          -29.259718
##########                      Grid_es_energy:           -0.495283
##########           Internal_energy_repulsive:           38.939220

@<TRIPOS>MOLECULE
ZINC000194290865
 57 59 1 0 0
SMALL
USER_CHARGES


@<TRIPOS>ATOM
      1 C1         -1.7134    2.9954   57.8434 C.3     1  ZINC000194290865   -0.1500
      2 C2         -2.5108    3.8879   56.8904 C.3     1  ZINC000194290865    0.0600
      3 O3         -3.8928    3.4438   56.8538 O.3     1  ZINC000194290865   -0.3600
      4 C4         -4.7335    4.1326   56.0661 C.2     1  ZINC000194290865    0.4700
      5 O5         -4.3165    5.0377   55.3828 O.2     1  ZINC000194290865   -0.4900
      6 C6         -6.1977    3.7772   56.0340 C.3     1  ZINC000194290865   -0.0600
      7 C7         -6.5939    3.0433   57.3166 C.3     1  ZINC000194290865   -0.0700
      8 C8         -6.4401    3.9860   58.5119 C.3     1  ZINC000194290865   -0.1700
      9 C9         -8.0497    2.5846   57.2128 C.3     1  ZINC000194290865   -0.1600
     10 C10        -7.0557    5.0509   55.8543 C.3     1  ZINC000194290865   -0.1200
     11 C11        -7.3286    5.0698   54.3292 C.3     1  ZINC000194290865    0.0900
     12 N12        -7.5089    3.6373   53.9986 N.am    1  ZINC000194290865   -0.6100
     13 C13        -8.4022    3.1089   53.1388 C.2     1  ZINC000194290865    0.5800
     14 O14        -9.1709    3.8343   52.5390 O.2     1  ZINC000194290865   -0.5000
     15 C15        -8.4470    1.6450   52.9253 C.ar    1  ZINC000194290865    0.0100
     16 C16        -7.5141    1.0030   52.0884 C.ar    1  ZINC000194290865   -0.2200
     17 C17        -7.5921   -0.3894   51.9127 C.ar    1  ZINC000194290865    0.3000
     18 N18        -8.5353   -1.0836   52.5307 N.ar    1  ZINC000194290865   -0.4700
     19 C19        -9.4203   -0.5111   53.3185 C.ar    1  ZINC000194290865    0.2100
     20 C20       -10.4659   -1.3635   53.9903 C.3     1  ZINC000194290865   -0.1100
     21 C21        -9.4112    0.8548   53.5508 C.ar    1  ZINC000194290865   -0.1800
     22 O22        -6.5938   -0.7343   51.0746 O.3     1  ZINC000194290865   -0.0800
     23 N23        -5.8695    0.4217   50.7055 N.2     1  ZINC000194290865   -0.2600
     24 C24        -6.3834    1.4642   51.2838 C.2     1  ZINC000194290865    0.1600
     25 C25        -5.9037    2.8866   51.1502 C.3     1  ZINC000194290865   -0.0400
     26 C26        -4.4505    2.8920   50.6717 C.3     1  ZINC000194290865   -0.1500
     27 C27        -6.7776    3.6264   50.1354 C.3     1  ZINC000194290865   -0.1400
     28 C28        -6.5101    2.9077   54.8018 C.3     1  ZINC000194290865    0.1200
     29 H29        -2.1418    3.0580   58.8437 H       1  ZINC000194290865    0.0700
     30 H30        -1.7544    1.9635   57.4945 H       1  ZINC000194290865    0.0700
     31 H31        -0.6760    3.3287   57.8708 H       1  ZINC000194290865    0.0800
     32 H32        -2.4698    4.9198   57.2392 H       1  ZINC000194290865    0.0700
     33 H33        -2.0825    3.8252   55.8900 H       1  ZINC000194290865    0.0700
     34 H34        -5.9484    2.1756   57.4529 H       1  ZINC000194290865    0.0900
     35 H35        -5.4029    4.3128   58.5859 H       1  ZINC000194290865    0.0500
     36 H36        -7.0857    4.8537   58.3756 H       1  ZINC000194290865    0.0800
     37 H37        -6.7224    3.4632   59.4257 H       1  ZINC000194290865    0.0600
     38 H38        -8.1593    1.9130   56.3613 H       1  ZINC000194290865    0.0500
     39 H39        -8.3321    2.0617   58.1266 H       1  ZINC000194290865    0.0600
     40 H40        -8.6953    3.4523   57.0765 H       1  ZINC000194290865    0.0800
     41 H41        -7.9885    4.9698   56.4124 H       1  ZINC000194290865    0.0900
     42 H42        -6.4989    5.9373   56.1579 H       1  ZINC000194290865    0.0900
     43 H43        -8.2353    5.6328   54.1077 H       1  ZINC000194290865    0.0900
     44 H44        -6.4762    5.4845   53.7911 H       1  ZINC000194290865    0.0900
     45 H45       -10.0912   -1.7050   54.9552 H       1  ZINC000194290865    0.0900
     46 H46       -11.3722   -0.7766   54.1395 H       1  ZINC000194290865    0.0900
     47 H47       -10.6905   -2.2255   53.3620 H       1  ZINC000194290865    0.0900
     48 H48       -10.1472    1.3033   54.2016 H       1  ZINC000194290865    0.1600
     49 H49        -5.9695    3.3845   52.1177 H       1  ZINC000194290865    0.1100
     50 H50        -4.3847    2.3940   49.7043 H       1  ZINC000194290865    0.0700
     51 H51        -4.1036    3.9207   50.5751 H       1  ZINC000194290865    0.0700
     52 H52        -3.8279    2.3649   51.3946 H       1  ZINC000194290865    0.0600
     53 H53        -7.8129    3.6225   50.4764 H       1  ZINC000194290865    0.0600
     54 H54        -6.4307    4.6551   50.0389 H       1  ZINC000194290865    0.0700
     55 H55        -6.7119    3.1285   49.1681 H       1  ZINC000194290865    0.0600
     56 H56        -5.6036    2.7538   54.2165 H       1  ZINC000194290865    0.0800
     57 H57        -6.9180    1.9478   55.1186 H       1  ZINC000194290865    0.1000
@<TRIPOS>BOND
     1     1     2    1
     2     1    29    1
     3     1    30    1
     4     1    31    1
     5     2     3    1
     6     2    32    1
     7     2    33    1
     8     3     4    1
     9     4     5    2
    10     4     6    1
    11     6    28    1
    12     6     7    1
    13     6    10    1
    14     7     8    1
    15     7     9    1
    16     7    34    1
    17     8    35    1
    18     8    36    1
    19     8    37    1
    20     9    38    1
    21     9    39    1
    22     9    40    1
    23    10    11    1
    24    10    41    1
    25    10    42    1
    26    11    12    1
    27    11    43    1
    28    11    44    1
    29    12    13   am
    30    12    28    1
    31    13    14    2
    32    13    15    1
    33    15    21   ar
    34    15    16   ar
    35    16    24    1
    36    16    17   ar
    37    17    18   ar
    38    17    22    1
    39    18    19   ar
    40    19    20    1
    41    19    21   ar
    42    20    45    1
    43    20    46    1
    44    20    47    1
    45    21    48    1
    46    22    23    1
    47    23    24    2
    48    24    25    1
    49    25    26    1
    50    25    27    1
    51    25    49    1
    52    26    50    1
    53    26    51    1
    54    26    52    1
    55    27    53    1
    56    27    54    1
    57    27    55    1
    58    28    56    1
    59    28    57    1
@<TRIPOS>SUBSTRUCTURE
     1 ZINC000194290865        1 TEMP              0 ****  ****    0 ROOT


##########                                Name:    ZINC000493443319
##########                DOCK_Rotatable_Bonds:                   6
##########                         Heavy_Atoms:                  25
##########                    Molecular_Weight:             348.399
##########                DOCK_Rotatable_Bonds:                   6
##########                       Formal_Charge:        -3.27826e-07
##########                     HBond_Acceptors:                   7
##########                        HBond_Donors:                   0
##########                         Heavy_Atoms:                  25
##########                          Grid_Score:          -29.711931
##########                     Grid_vdw_energy:          -30.057661
##########                      Grid_es_energy:            0.345730
##########           Internal_energy_repulsive:           59.117428

@<TRIPOS>MOLECULE
ZINC000493443319
 49 51 1 0 0
SMALL
USER_CHARGES


@<TRIPOS>ATOM
      1 C1         -6.5292    2.7245   50.3691 C.3     1  <0>        -0.1500
      2 C2         -5.7803    2.2817   51.6276 C.3     1  <0>         0.0500
      3 O3         -4.6315    3.1107   51.8148 O.3     1  <0>        -0.3200
      4 C4         -3.6016    2.9446   50.9424 C.ar    1  <0>         0.1000
      5 C5         -3.5860    1.8523   50.0877 C.ar    1  <0>        -0.1700
      6 C6         -2.5399    1.6835   49.2017 C.ar    1  <0>        -0.1100
      7 C7         -1.5053    2.6066   49.1664 C.ar    1  <0>         0.0800
      8 O8         -0.4752    2.4402   48.2943 O.3     1  <0>        -0.3000
      9 C9          0.6817    1.7560   48.7797 C.3     1  <0>         0.1000
     10 C10         1.4177    2.6467   49.7825 C.3     1  <0>        -0.1800
     11 C11         0.2552    0.4577   49.4677 C.3     1  <0>        -0.1500
     12 C12         1.5969    1.4359   47.6259 C.2     1  <0>         0.5100
     13 O13         2.7652    1.7583   47.6711 O.2     1  <0>        -0.5200
     14 N14         1.1170    0.7913   46.5439 N.am    1  <0>        -0.6000
     15 C15        -0.2968    0.3996   46.4863 C.3     1  <0>         0.0700
     16 C16        -0.9346    1.0060   45.2261 C.3     1  <0>         0.1300
     17 N17        -0.0152    0.7593   44.1065 N.am    1  <0>        -0.6300
     18 C18        -0.2760    0.1816   42.9327 C.2     1  <0>         0.6500
     19 O19        -1.4006   -0.0853   42.5579 O.2     1  <0>        -0.5200
     20 O20         0.8199   -0.0767   42.2065 O.3     1  <0>        -0.3200
     21 C21         1.9942    0.4458   42.8958 C.3     1  <0>         0.0500
     22 C22         1.4188    1.1181   44.1528 C.3     1  <0>         0.0800
     23 H23         1.5638    2.1982   44.1315 H       1  <0>         0.1100
     24 C24         2.0065    0.4830   45.4136 C.3     1  <0>         0.1000
     25 C25        -1.5216    3.6996   50.0200 C.ar    1  <0>        -0.1800
     26 C26        -2.5697    3.8704   50.9035 C.ar    1  <0>        -0.1100
     27 H27        -7.4055    2.0922   50.2263 H       1  <0>         0.0800
     28 H28        -6.8441    3.7622   50.4798 H       1  <0>         0.0700
     29 H29        -5.8716    2.6346   49.5045 H       1  <0>         0.0700
     30 H30        -6.4380    2.3715   52.4923 H       1  <0>         0.0600
     31 H31        -5.4655    1.2441   51.5168 H       1  <0>         0.0600
     32 H32        -4.3917    1.1335   50.1154 H       1  <0>         0.1400
     33 H33        -2.5274    0.8326   48.5367 H       1  <0>         0.1400
     34 H34         0.8058    2.7704   50.6760 H       1  <0>         0.0800
     35 H35         2.3661    2.1825   50.0531 H       1  <0>         0.0900
     36 H36         1.6056    3.6218   49.3329 H       1  <0>         0.0800
     37 H37        -0.3455   -0.1375   48.7800 H       1  <0>         0.0800
     38 H38         1.1408   -0.1070   49.7590 H       1  <0>         0.0900
     39 H39        -0.3336    0.6928   50.3543 H       1  <0>         0.0900
     40 H40        -0.3727   -0.6869   46.4466 H       1  <0>         0.0800
     41 H41        -0.8142    0.7704   47.3712 H       1  <0>         0.1300
     42 H42        -1.8943    0.5278   45.0296 H       1  <0>         0.1100
     43 H43        -1.0747    2.0785   45.3609 H       1  <0>         0.0800
     44 H44         2.6683   -0.3653   43.1709 H       1  <0>         0.1100
     45 H45         2.5090    1.1773   42.2729 H       1  <0>         0.1100
     46 H46         2.9987    0.8922   45.6037 H       1  <0>         0.1100
     47 H47         2.0715   -0.5975   45.2855 H       1  <0>         0.0800
     48 H48        -0.7161    4.4186   49.9922 H       1  <0>         0.1600
     49 H49        -2.5823    4.7215   51.5681 H       1  <0>         0.1300
@<TRIPOS>BOND
     1     1     2    1
     2     1    27    1
     3     1    28    1
     4     1    29    1
     5     2     3    1
     6     2    30    1
     7     2    31    1
     8     3     4    1
     9     4    26   ar
    10     4     5   ar
    11     5     6   ar
    12     5    32    1
    13     6     7   ar
    14     6    33    1
    15     7     8    1
    16     7    25   ar
    17     8     9    1
    18     9    10    1
    19     9    11    1
    20     9    12    1
    21    10    34    1
    22    10    35    1
    23    10    36    1
    24    11    37    1
    25    11    38    1
    26    11    39    1
    27    12    13    2
    28    12    14   am
    29    14    24    1
    30    14    15    1
    31    15    16    1
    32    15    40    1
    33    15    41    1
    34    16    17    1
    35    16    42    1
    36    16    43    1
    37    17    22    1
    38    17    18   am
    39    18    19    2
    40    18    20    1
    41    20    21    1
    42    21    22    1
    43    21    44    1
    44    21    45    1
    45    22    23    1
    46    22    24    1
    47    24    46    1
    48    24    47    1
    49    25    26   ar
    50    25    48    1
    51    26    49    1
@<TRIPOS>SUBSTRUCTURE
     1 <0>         1 TEMP              0 ****  ****    0 ROOT


##########                                Name:    ZINC000330515179
##########                DOCK_Rotatable_Bonds:                   4
##########                         Heavy_Atoms:                  21
##########                    Molecular_Weight:             378.287
##########                DOCK_Rotatable_Bonds:                   4
##########                       Formal_Charge:           0.0200002
##########                     HBond_Acceptors:                   6
##########                        HBond_Donors:                   0
##########                         Heavy_Atoms:                  21
##########                          Grid_Score:          -29.705696
##########                     Grid_vdw_energy:          -27.745678
##########                      Grid_es_energy:           -1.960017
##########           Internal_energy_repulsive:            8.008775

@<TRIPOS>MOLECULE
ZINC000330515179
 41 42 1 0 0
SMALL
USER_CHARGES


@<TRIPOS>ATOM
      1 C1         -1.1245   -0.5854   42.6203 C.3     1  ZINC000330515179    0.0300
      2 O2         -1.6800   -0.5318   43.9359 O.3     1  ZINC000330515179   -0.3800
      3 C3         -1.8240    0.7928   44.4524 C.3     1  ZINC000330515179    0.0700
      4 C4         -1.1575    0.8794   45.8269 C.3     1  ZINC000330515179    0.0800
      5 H5         -1.6874    1.6056   46.4434 H       1  ZINC000330515179    0.0800
      6 C6          0.3024    1.3169   45.6613 C.3     1  ZINC000330515179    0.0900
      7 N7          0.9696    1.2118   46.9687 N.am    1  ZINC000330515179   -1.0000
      8 S8          1.8421    2.4773   47.5846 S.o2    1  ZINC000330515179    2.6900
      9 O9          3.1280    1.9618   47.9007 O.2     1  ZINC000330515179   -0.9400
     10 O10         1.6392    3.5720   46.7018 O.2     1  ZINC000330515179   -0.9500
     11 C11         1.0967    2.9284   49.1161 C.ar    1  ZINC000330515179   -0.6700
     12 C12        -0.0601    3.6852   49.1251 C.ar    1  ZINC000330515179   -0.0100
     13 C13        -0.6454    4.0390   50.3263 C.ar    1  ZINC000330515179   -0.1100
     14 C14        -0.0735    3.6355   51.5194 C.ar    1  ZINC000330515179   -0.0400
     15 Br15       -0.8743    4.1185   53.1630 Br      1  ZINC000330515179   -0.0300
     16 C16         1.0839    2.8782   51.5099 C.ar    1  ZINC000330515179   -0.1100
     17 C17         1.6656    2.5204   50.3082 C.ar    1  ZINC000330515179   -0.0100
     18 C18         0.8388   -0.0513   47.7122 C.3     1  ZINC000330515179    0.1000
     19 C19        -0.6472   -0.4221   47.7779 C.3     1  ZINC000330515179    0.1000
     20 C20        -0.7985   -1.8232   48.3737 C.3     1  ZINC000330515179   -0.1400
     21 C21        -1.3879    0.5891   48.6553 C.3     1  ZINC000330515179   -0.1800
     22 O22        -1.1969   -0.4025   46.4584 O.3     1  ZINC000330515179   -0.3500
     23 H23        -1.0477   -1.6246   42.3004 H       1  ZINC000330515179    0.0900
     24 H24        -1.7692   -0.0398   41.9312 H       1  ZINC000330515179    0.0400
     25 H25        -0.1330   -0.1327   42.6259 H       1  ZINC000330515179    0.0400
     26 H26        -1.3497    1.5012   43.7733 H       1  ZINC000330515179    0.0600
     27 H27        -2.8830    1.0329   44.5464 H       1  ZINC000330515179    0.0700
     28 H28         0.8008    0.6677   44.9415 H       1  ZINC000330515179    0.0900
     29 H29         0.3391    2.3489   45.3123 H       1  ZINC000330515179    0.1000
     30 H30        -0.5063    4.0006   48.1935 H       1  ZINC000330515179    0.1500
     31 H31        -1.5489    4.6306   50.3332 H       1  ZINC000330515179    0.1500
     32 H32         1.5307    2.5629   52.4412 H       1  ZINC000330515179    0.1500
     33 H33         2.5693    1.9292   50.3006 H       1  ZINC000330515179    0.1500
     34 H34         1.3912   -0.8383   47.1990 H       1  ZINC000330515179    0.0900
     35 H35         1.2307    0.0747   48.7216 H       1  ZINC000330515179    0.1000
     36 H36        -0.3758   -1.8383   49.3783 H       1  ZINC000330515179    0.0800
     37 H37        -1.8552   -2.0861   48.4201 H       1  ZINC000330515179    0.0700
     38 H38        -0.2720   -2.5432   47.7472 H       1  ZINC000330515179    0.0700
     39 H39        -1.2813    1.5867   48.2293 H       1  ZINC000330515179    0.0600
     40 H40        -2.4443    0.3248   48.7015 H       1  ZINC000330515179    0.0700
     41 H41        -0.9658    0.5760   49.6602 H       1  ZINC000330515179    0.0700
@<TRIPOS>BOND
     1     1     2    1
     2     1    23    1
     3     1    24    1
     4     1    25    1
     5     2     3    1
     6     3     4    1
     7     3    26    1
     8     3    27    1
     9     4     5    1
    10     4    22    1
    11     4     6    1
    12     6     7    1
    13     6    28    1
    14     6    29    1
    15     7     8   am
    16     7    18    1
    17     8     9    2
    18     8    10    2
    19     8    11    1
    20    11    17   ar
    21    11    12   ar
    22    12    13   ar
    23    12    30    1
    24    13    14   ar
    25    13    31    1
    26    14    15    1
    27    14    16   ar
    28    16    17   ar
    29    16    32    1
    30    17    33    1
    31    18    19    1
    32    18    34    1
    33    18    35    1
    34    19    20    1
    35    19    21    1
    36    19    22    1
    37    20    36    1
    38    20    37    1
    39    20    38    1
    40    21    39    1
    41    21    40    1
    42    21    41    1
@<TRIPOS>SUBSTRUCTURE
     1 ZINC000330515179        1 TEMP              0 ****  ****    0 ROOT


##########                                Name:    ZINC000647468483
##########                DOCK_Rotatable_Bonds:                   5
##########                         Heavy_Atoms:                  24
##########                    Molecular_Weight:             341.373
##########                DOCK_Rotatable_Bonds:                   5
##########                       Formal_Charge:           0.0300004
##########                     HBond_Acceptors:                   6
##########                        HBond_Donors:                   2
##########                         Heavy_Atoms:                  24
##########                          Grid_Score:          -29.698103
##########                     Grid_vdw_energy:          -29.092579
##########                      Grid_es_energy:           -0.605523
##########           Internal_energy_repulsive:           20.396654

@<TRIPOS>MOLECULE
ZINC000647468483
 46 48 1 0 0
SMALL
USER_CHARGES


@<TRIPOS>ATOM
      1 O1         -6.0297    5.1280   52.5275 O.co2   1  ZINC000647468483   -0.6800
      2 C2         -4.9226    4.6354   52.3928 C.2     1  ZINC000647468483    0.5000
      3 O3         -4.1592    4.5825   53.3421 O.co2   1  ZINC000647468483   -0.6900
      4 C4         -4.5000    4.0862   51.0545 C.3     1  ZINC000647468483   -0.1500
      5 H5         -4.9586    4.6526   50.2440 H       1  ZINC000647468483    0.0800
      6 C6         -4.8533    2.5824   50.9419 C.3     1  ZINC000647468483   -0.1100
      7 C7         -3.8727    2.0418   49.8809 C.3     1  ZINC000647468483   -0.1400
      8 C8         -2.6666    2.9973   49.8696 C.3     1  ZINC000647468483    0.0100
      9 H9         -2.5591    3.4514   48.8845 H       1  ZINC000647468483    0.1400
     10 N10        -1.4422    2.2665   50.2227 N.4     1  ZINC000647468483   -0.5000
     11 H11        -1.4469    2.0598   51.2103 H       1  ZINC000647468483    0.4200
     12 H12        -1.4019    1.4050   49.6989 H       1  ZINC000647468483    0.4300
     13 C13        -0.2698    3.0909   49.9004 C.3     1  ZINC000647468483    0.0200
     14 H14        -0.5815    3.9940   49.3757 H       1  ZINC000647468483    0.1500
     15 C15         0.4830    3.4635   51.1896 C.3     1  ZINC000647468483   -0.1400
     16 C16         1.9021    2.8733   51.0576 C.3     1  ZINC000647468483   -0.1300
     17 C17         1.7383    1.7132   50.0443 C.3     1  ZINC000647468483   -0.1300
     18 C18         0.7175    2.2874   49.0288 C.3     1  ZINC000647468483   -0.0600
     19 H19         1.2170    2.9423   48.3147 H       1  ZINC000647468483    0.1300
     20 C20         0.0041    1.1716   48.3098 C.ar    1  ZINC000647468483   -0.1200
     21 C21        -0.4414    0.0691   49.0143 C.ar    1  ZINC000647468483   -0.0700
     22 C22        -1.0958   -0.9547   48.3546 C.ar    1  ZINC000647468483   -0.1000
     23 C23        -1.3048   -0.8754   46.9907 C.ar    1  ZINC000647468483   -0.0600
     24 C24        -0.8599    0.2278   46.2861 C.ar    1  ZINC000647468483   -0.1600
     25 C25        -1.0874    0.3140   44.7988 C.3     1  ZINC000647468483    0.5000
     26 F26        -1.7384   -0.8435   44.3589 F       1  ZINC000647468483   -0.1700
     27 F27        -1.8784    1.4317   44.5120 F       1  ZINC000647468483   -0.1700
     28 F28         0.1436    0.4337   44.1450 F       1  ZINC000647468483   -0.1700
     29 C29        -0.2094    1.2532   46.9463 C.ar    1  ZINC000647468483   -0.1100
     30 C30        -2.9568    4.0901   50.9221 C.3     1  ZINC000647468483   -0.1200
     31 H31        -4.6965    2.0811   51.8970 H       1  ZINC000647468483    0.0800
     32 H32        -5.8835    2.4566   50.6085 H       1  ZINC000647468483    0.0800
     33 H33        -3.5496    1.0359   50.1492 H       1  ZINC000647468483    0.0700
     34 H34        -4.3505    2.0320   48.9012 H       1  ZINC000647468483    0.1000
     35 H35         0.5374    4.5476   51.2901 H       1  ZINC000647468483    0.1000
     36 H36        -0.0216    3.0328   52.0545 H       1  ZINC000647468483    0.0900
     37 H37         2.5927    3.6228   50.6709 H       1  ZINC000647468483    0.0800
     38 H38         2.2485    2.4939   52.0189 H       1  ZINC000647468483    0.0900
     39 H39         2.6865    1.4910   49.5549 H       1  ZINC000647468483    0.0900
     40 H40         1.3381    0.8258   50.5347 H       1  ZINC000647468483    0.0800
     41 H41        -0.2780    0.0072   50.0802 H       1  ZINC000647468483    0.1400
     42 H42        -1.4432   -1.8164   48.9051 H       1  ZINC000647468483    0.1500
     43 H43        -1.8152   -1.6755   46.4753 H       1  ZINC000647468483    0.1500
     44 H44         0.1381    2.1150   46.3959 H       1  ZINC000647468483    0.1400
     45 H45        -2.6014    5.0597   50.5734 H       1  ZINC000647468483    0.0900
     46 H46        -2.4947    3.8337   51.8755 H       1  ZINC000647468483    0.1000
@<TRIPOS>BOND
     1     1     2   ar
     2     2     3   ar
     3     2     4    1
     4     4     5    1
     5     4    30    1
     6     4     6    1
     7     6     7    1
     8     6    31    1
     9     6    32    1
    10     7     8    1
    11     7    33    1
    12     7    34    1
    13     8     9    1
    14     8    10    1
    15     8    30    1
    16    10    11    1
    17    10    12    1
    18    10    13    1
    19    13    14    1
    20    13    18    1
    21    13    15    1
    22    15    16    1
    23    15    35    1
    24    15    36    1
    25    16    17    1
    26    16    37    1
    27    16    38    1
    28    17    18    1
    29    17    39    1
    30    17    40    1
    31    18    19    1
    32    18    20    1
    33    20    29   ar
    34    20    21   ar
    35    21    22   ar
    36    21    41    1
    37    22    23   ar
    38    22    42    1
    39    23    24   ar
    40    23    43    1
    41    24    25    1
    42    24    29   ar
    43    25    26    1
    44    25    27    1
    45    25    28    1
    46    29    44    1
    47    30    45    1
    48    30    46    1
@<TRIPOS>SUBSTRUCTURE
     1 ZINC000647468483        1 TEMP              0 ****  ****    0 ROOT


##########                                Name:    ZINC000081577146
##########                DOCK_Rotatable_Bonds:                   4
##########                         Heavy_Atoms:                  25
##########                    Molecular_Weight:             355.464
##########                DOCK_Rotatable_Bonds:                   4
##########                       Formal_Charge:                0.02
##########                     HBond_Acceptors:                   7
##########                        HBond_Donors:                   0
##########                         Heavy_Atoms:                  25
##########                          Grid_Score:          -29.695337
##########                     Grid_vdw_energy:          -28.963427
##########                      Grid_es_energy:           -0.731910
##########           Internal_energy_repulsive:           11.788781

@<TRIPOS>MOLECULE
ZINC000081577146
 46 49 1 0 0
SMALL
USER_CHARGES


@<TRIPOS>ATOM
      1 C1          2.6328   -0.0120   40.9479 C.3     1  ZINC000081577146   -0.0700
      2 C2          1.6170    0.1846   42.0437 C.2     1  ZINC000081577146    0.2900
      3 N3          0.3804   -0.1892   41.8878 N.2     1  ZINC000081577146   -0.4800
      4 S4         -0.4092    0.2104   43.3388 S.3     1  ZINC000081577146    0.1900
      5 C5          0.9979    0.8693   44.0839 C.2     1  ZINC000081577146    0.2700
      6 N6          1.1024    1.4165   45.3499 N.3     1  ZINC000081577146   -0.4300
      7 C7          1.9028    0.5553   46.2314 C.3     1  ZINC000081577146    0.0700
      8 C8          2.0611    1.2321   47.5949 C.3     1  ZINC000081577146    0.0500
      9 N9          0.7329    1.4820   48.1720 N.3     1  ZINC000081577146   -0.5200
     10 C10         0.8439    2.0632   49.5165 C.3     1  ZINC000081577146    0.1900
     11 H11         1.6656    2.7792   49.5362 H       1  ZINC000081577146    0.0700
     12 C12         1.1122    0.9509   50.5323 C.3     1  ZINC000081577146   -0.1500
     13 C13        -0.4424    2.7651   49.8682 C.2     1  ZINC000081577146    0.1900
     14 N14        -0.5668    4.0397   50.1117 N.2     1  ZINC000081577146   -0.4500
     15 C15        -1.8523    4.3060   50.3877 C.2     1  ZINC000081577146   -0.0200
     16 C16        -2.5381    3.1370   50.3073 C.2     1  ZINC000081577146    0.0000
     17 C17        -3.9867    2.9481   50.5334 C.ar    1  ZINC000081577146   -0.0200
     18 C18        -4.5714    1.6980   50.3251 C.ar    1  ZINC000081577146   -0.1000
     19 C19        -5.9238    1.5283   50.5384 C.ar    1  ZINC000081577146   -0.1200
     20 C20        -6.7002    2.5941   50.9575 C.ar    1  ZINC000081577146   -0.1100
     21 C21        -6.1270    3.8359   51.1653 C.ar    1  ZINC000081577146   -0.1100
     22 C22        -4.7746    4.0176   50.9616 C.ar    1  ZINC000081577146   -0.0900
     23 O23        -1.6433    2.1805   49.9754 O.3     1  ZINC000081577146   -0.2000
     24 C24        -0.0677    2.3433   47.2904 C.3     1  ZINC000081577146    0.0600
     25 C25        -0.2259    1.6664   45.9268 C.3     1  ZINC000081577146    0.0500
     26 N26         1.9528    0.7335   43.1880 N.2     1  ZINC000081577146   -0.5400
     27 H27         3.1060   -0.9873   41.0619 H       1  ZINC000081577146    0.0900
     28 H28         2.1365    0.0400   39.9788 H       1  ZINC000081577146    0.0900
     29 H29         3.3906    0.7690   41.0106 H       1  ZINC000081577146    0.0900
     30 H30         1.3999   -0.4036   46.3575 H       1  ZINC000081577146    0.0700
     31 H31         2.8858    0.3952   45.7885 H       1  ZINC000081577146    0.1100
     32 H32         2.6300    0.5822   48.2597 H       1  ZINC000081577146    0.1000
     33 H33         2.5882    2.1783   47.4723 H       1  ZINC000081577146    0.0600
     34 H34         0.2906    0.2350   50.5127 H       1  ZINC000081577146    0.0800
     35 H35         2.0427    0.4433   50.2780 H       1  ZINC000081577146    0.0800
     36 H36         1.1946    1.3822   51.5300 H       1  ZINC000081577146    0.0700
     37 H37        -2.2661    5.2737   50.6296 H       1  ZINC000081577146    0.1900
     38 H38        -3.9666    0.8654   49.9974 H       1  ZINC000081577146    0.1300
     39 H39        -6.3776    0.5614   50.3777 H       1  ZINC000081577146    0.1300
     40 H40        -7.7586    2.4560   51.1227 H       1  ZINC000081577146    0.1300
     41 H41        -6.7388    4.6639   51.4917 H       1  ZINC000081577146    0.1300
     42 H42        -4.3282    4.9874   51.1246 H       1  ZINC000081577146    0.1300
     43 H43        -1.0506    2.5034   47.7332 H       1  ZINC000081577146    0.0900
     44 H44         0.4353    3.3021   47.1642 H       1  ZINC000081577146    0.0500
     45 H45        -0.7948    2.3164   45.2621 H       1  ZINC000081577146    0.1000
     46 H46        -0.7529    0.7203   46.0495 H       1  ZINC000081577146    0.0800
@<TRIPOS>BOND
     1     1     2    1
     2     1    27    1
     3     1    28    1
     4     1    29    1
     5     2    26    1
     6     2     3    2
     7     3     4    1
     8     4     5    1
     9     5     6    1
    10     5    26    2
    11     6    25    1
    12     6     7    1
    13     7     8    1
    14     7    30    1
    15     7    31    1
    16     8     9    1
    17     8    32    1
    18     8    33    1
    19     9    10    1
    20     9    24    1
    21    10    11    1
    22    10    12    1
    23    10    13    1
    24    12    34    1
    25    12    35    1
    26    12    36    1
    27    13    23    1
    28    13    14    2
    29    14    15    1
    30    15    16    2
    31    15    37    1
    32    16    17    1
    33    16    23    1
    34    17    22   ar
    35    17    18   ar
    36    18    19   ar
    37    18    38    1
    38    19    20   ar
    39    19    39    1
    40    20    21   ar
    41    20    40    1
    42    21    22   ar
    43    21    41    1
    44    22    42    1
    45    24    25    1
    46    24    43    1
    47    24    44    1
    48    25    45    1
    49    25    46    1
@<TRIPOS>SUBSTRUCTURE
     1 ZINC000081577146        1 TEMP              0 ****  ****    0 ROOT


##########                                Name:    ZINC000797321835
##########                DOCK_Rotatable_Bonds:                   4
##########                         Heavy_Atoms:                  22
##########                    Molecular_Weight:             381.253
##########                DOCK_Rotatable_Bonds:                   4
##########                       Formal_Charge:           0.0200001
##########                     HBond_Acceptors:                   7
##########                        HBond_Donors:                   1
##########                         Heavy_Atoms:                  22
##########                          Grid_Score:          -29.692465
##########                     Grid_vdw_energy:          -29.534315
##########                      Grid_es_energy:           -0.158150
##########           Internal_energy_repulsive:            8.237872

@<TRIPOS>MOLECULE
ZINC000797321835
 35 37 1 0 0
SMALL
USER_CHARGES


@<TRIPOS>ATOM
      1 C1          0.2446    1.1477   49.7275 C.3     1  ZINC000797321835    0.1000
      2 N2         -0.2942    1.3652   48.3828 N.am    1  ZINC000797321835   -0.6000
      3 C3          0.2340    0.8464   47.2609 C.2     1  ZINC000797321835    0.5200
      4 O4          1.2208    0.1425   47.2188 O.2     1  ZINC000797321835   -0.5200
      5 C5         -0.5817    1.2677   46.0585 C.3     1  ZINC000797321835   -0.1500
      6 C6         -1.9136    1.7712   46.6615 C.3     1  ZINC000797321835   -0.1200
      7 C7         -1.4838    2.1728   48.0879 C.3     1  ZINC000797321835    0.1200
      8 H8         -1.2306    3.2324   48.1214 H       1  ZINC000797321835    0.1100
      9 C9         -2.5862    1.8695   49.0696 C.2     1  ZINC000797321835    0.4900
     10 O10        -2.5134    0.8889   49.7794 O.2     1  ZINC000797321835   -0.4400
     11 N11        -3.6532    2.6881   49.1586 N.am    1  ZINC000797321835   -0.6500
     12 C12        -4.6735    2.4074   50.0671 C.ar    1  ZINC000797321835    0.3000
     13 C13        -4.9502    3.3000   51.1035 C.ar    1  ZINC000797321835   -0.1400
     14 C14        -5.9709    2.9815   51.9806 C.ar    1  ZINC000797321835   -0.0800
     15 C15        -6.6638    1.7814   51.7736 C.ar    1  ZINC000797321835    0.1100
     16 C16        -7.7627    1.3939   52.6809 C.2     1  ZINC000797321835   -0.1400
     17 C17        -8.4282    2.2330   53.5005 C.2     1  ZINC000797321835   -0.0900
     18 C18        -9.4172    1.6381   54.2551 C.2     1  ZINC000797321835   -0.0900
     19 C19        -9.5651    0.3231   54.0594 C.2     1  ZINC000797321835   -0.2000
     20 Br20      -10.8299   -0.7725   54.9404 Br      1  ZINC000797321835    0.0200
     21 S21        -8.4110   -0.2319   52.8541 S.3     1  ZINC000797321835    0.1900
     22 N22        -6.3285    0.9937   50.7575 N.ar    1  ZINC000797321835   -0.1900
     23 N23        -5.3837    1.2965   49.9433 N.ar    1  ZINC000797321835   -0.2200
     24 H24        -0.2133    0.2595   50.1631 H       1  ZINC000797321835    0.0700
     25 H25         1.3240    1.0080   49.6682 H       1  ZINC000797321835    0.0800
     26 H26         0.0240    2.0135   50.3519 H       1  ZINC000797321835    0.0700
     27 H27        -0.0794    2.0707   45.5191 H       1  ZINC000797321835    0.1100
     28 H28        -0.7584    0.4170   45.4003 H       1  ZINC000797321835    0.1100
     29 H29        -2.2917    2.6311   46.1085 H       1  ZINC000797321835    0.1100
     30 H30        -2.6546    0.9724   46.6919 H       1  ZINC000797321835    0.0900
     31 H31        -3.7115    3.4724   48.5909 H       1  ZINC000797321835    0.4200
     32 H32        -4.3839    4.2124   51.2174 H       1  ZINC000797321835    0.1600
     33 H33        -6.2257    3.6373   52.8000 H       1  ZINC000797321835    0.1500
     34 H34        -8.2039    3.2877   53.5612 H       1  ZINC000797321835    0.1600
     35 H35       -10.0271    2.1929   54.9527 H       1  ZINC000797321835    0.1600
@<TRIPOS>BOND
     1     1     2    1
     2     1    24    1
     3     1    25    1
     4     1    26    1
     5     2     7    1
     6     2     3   am
     7     3     4    2
     8     3     5    1
     9     5     6    1
    10     5    27    1
    11     5    28    1
    12     6     7    1
    13     6    29    1
    14     6    30    1
    15     7     8    1
    16     7     9    1
    17     9    10    2
    18     9    11   am
    19    11    12    1
    20    11    31    1
    21    12    23   ar
    22    12    13   ar
    23    13    14   ar
    24    13    32    1
    25    14    15   ar
    26    14    33    1
    27    15    16    1
    28    15    22   ar
    29    16    21    1
    30    16    17    2
    31    17    18    1
    32    17    34    1
    33    18    19    2
    34    18    35    1
    35    19    20    1
    36    19    21    1
    37    22    23   ar
@<TRIPOS>SUBSTRUCTURE
     1 ZINC000797321835        1 TEMP              0 ****  ****    0 ROOT


##########                                Name:    ZINC000859202493
##########                DOCK_Rotatable_Bonds:                  11
##########                         Heavy_Atoms:                  25
##########                    Molecular_Weight:             382.404
##########                DOCK_Rotatable_Bonds:                  11
##########                       Formal_Charge:          -0.0200009
##########                     HBond_Acceptors:                  10
##########                        HBond_Donors:                   3
##########                         Heavy_Atoms:                  25
##########                          Grid_Score:          -29.684155
##########                     Grid_vdw_energy:          -27.975636
##########                      Grid_es_energy:           -1.708519
##########           Internal_energy_repulsive:           18.054932

@<TRIPOS>MOLECULE
ZINC000859202493
 46 46 1 0 0
SMALL
USER_CHARGES


@<TRIPOS>ATOM
      1 C1        -16.0274   -1.1926   60.9519 C.3     1  ZINC000859202493   -0.1500
      2 C2        -14.6244   -1.7013   61.2890 C.3     1  ZINC000859202493   -0.1200
      3 C3        -13.6816   -1.4097   60.1198 C.3     1  ZINC000859202493   -0.1000
      4 H4        -12.7073   -1.8561   60.3187 H       1  ZINC000859202493    0.0700
      5 C5        -13.5255    0.1034   59.9556 C.3     1  ZINC000859202493   -0.1600
      6 C6        -14.2625   -2.0048   58.8355 C.3     1  ZINC000859202493   -0.1200
      7 C7        -13.1355   -2.2428   57.8284 C.3     1  ZINC000859202493    0.1600
      8 H8        -12.5185   -1.3473   57.7553 H       1  ZINC000859202493    0.1000
      9 C9        -13.7355   -2.5620   56.4576 C.3     1  ZINC000859202493    0.0500
     10 O10       -14.4656   -3.7883   56.5311 O.3     1  ZINC000859202493   -0.5700
     11 N11       -12.3114   -3.3687   58.2749 N.am    1  ZINC000859202493   -1.1000
     12 S12       -10.7493   -3.5129   57.7444 S.o2    1  ZINC000859202493    2.6900
     13 O13       -10.1803   -4.5990   58.4628 O.2     1  ZINC000859202493   -0.9500
     14 O14       -10.8011   -3.4617   56.3253 O.2     1  ZINC000859202493   -0.9500
     15 C15        -9.8866   -2.0667   58.2634 C.ar    1  ZINC000859202493   -0.6600
     16 C16        -9.6940   -1.0226   57.3778 C.ar    1  ZINC000859202493   -0.0300
     17 C17        -9.0170    0.1140   57.7811 C.ar    1  ZINC000859202493   -0.1100
     18 C18        -8.5317    0.2094   59.0704 C.ar    1  ZINC000859202493   -0.0600
     19 C19        -8.7240   -0.8376   59.9625 C.ar    1  ZINC000859202493    0.1200
     20 N20        -8.2338   -0.7438   61.2698 N.am    1  ZINC000859202493   -0.6500
     21 C21        -8.9529   -0.1068   62.2150 C.2     1  ZINC000859202493    0.4800
     22 O22       -10.0250    0.3852   61.9326 O.2     1  ZINC000859202493   -0.4500
     23 C23        -8.4250   -0.0058   63.6229 C.3     1  ZINC000859202493    0.4600
     24 F24        -8.8638    1.1904   64.2008 F       1  ZINC000859202493   -0.1500
     25 F25        -8.8948   -1.0872   64.3758 F       1  ZINC000859202493   -0.1600
     26 F26        -7.0264   -0.0267   63.5991 F       1  ZINC000859202493   -0.1600
     27 C27        -9.4086   -1.9752   59.5561 C.ar    1  ZINC000859202493   -0.0300
     28 H28       -16.6990   -1.4004   61.7848 H       1  ZINC000859202493    0.0500
     29 H29       -15.9912   -0.1179   60.7737 H       1  ZINC000859202493    0.0500
     30 H30       -16.3916   -1.6972   60.0569 H       1  ZINC000859202493    0.0600
     31 H31       -14.2603   -1.1967   62.1839 H       1  ZINC000859202493    0.0600
     32 H32       -14.6606   -2.7760   61.4671 H       1  ZINC000859202493    0.0600
     33 H33       -12.8538    0.3111   59.1227 H       1  ZINC000859202493    0.0500
     34 H34       -14.4999    0.5497   59.7567 H       1  ZINC000859202493    0.0600
     35 H35       -13.1117    0.5273   60.8705 H       1  ZINC000859202493    0.0600
     36 H36       -14.7525   -2.9515   59.0629 H       1  ZINC000859202493    0.0800
     37 H37       -14.9893   -1.3124   58.4106 H       1  ZINC000859202493    0.0800
     38 H38       -14.4066   -1.7569   56.1584 H       1  ZINC000859202493    0.0600
     39 H39       -12.9350   -2.6592   55.7243 H       1  ZINC000859202493    0.0600
     40 H40       -15.1559   -3.7951   57.2082 H       1  ZINC000859202493    0.3800
     41 H41       -12.6806   -4.0297   58.8812 H       1  ZINC000859202493    0.4200
     42 H42       -10.0725   -1.0948   56.3690 H       1  ZINC000859202493    0.1500
     43 H43        -8.8675    0.9277   57.0868 H       1  ZINC000859202493    0.1400
     44 H44        -8.0028    1.0971   59.3846 H       1  ZINC000859202493    0.1400
     45 H45        -7.3765   -1.1374   61.4957 H       1  ZINC000859202493    0.4200
     46 H46        -9.5597   -2.7910   60.2474 H       1  ZINC000859202493    0.1500
@<TRIPOS>BOND
     1     1     2    1
     2     1    28    1
     3     1    29    1
     4     1    30    1
     5     2     3    1
     6     2    31    1
     7     2    32    1
     8     3     4    1
     9     3     5    1
    10     3     6    1
    11     5    33    1
    12     5    34    1
    13     5    35    1
    14     6     7    1
    15     6    36    1
    16     6    37    1
    17     7     8    1
    18     7     9    1
    19     7    11    1
    20     9    10    1
    21     9    38    1
    22     9    39    1
    23    10    40    1
    24    11    12   am
    25    11    41    1
    26    12    13    2
    27    12    14    2
    28    12    15    1
    29    15    27   ar
    30    15    16   ar
    31    16    17   ar
    32    16    42    1
    33    17    18   ar
    34    17    43    1
    35    18    19   ar
    36    18    44    1
    37    19    20    1
    38    19    27   ar
    39    20    21   am
    40    20    45    1
    41    21    22    2
    42    21    23    1
    43    23    24    1
    44    23    25    1
    45    23    26    1
    46    27    46    1
@<TRIPOS>SUBSTRUCTURE
     1 ZINC000859202493        1 TEMP              0 ****  ****    0 ROOT


##########                                Name:    ZINC000680410869
##########                DOCK_Rotatable_Bonds:                   6
##########                         Heavy_Atoms:                  24
##########                    Molecular_Weight:             335.354
##########                DOCK_Rotatable_Bonds:                   6
##########                       Formal_Charge:        -1.04308e-07
##########                     HBond_Acceptors:                   7
##########                        HBond_Donors:                   0
##########                         Heavy_Atoms:                  24
##########                          Grid_Score:          -29.679760
##########                     Grid_vdw_energy:          -27.806879
##########                      Grid_es_energy:           -1.872880
##########           Internal_energy_repulsive:           15.857894

@<TRIPOS>MOLECULE
ZINC000680410869
 43 45 1 0 0
SMALL
USER_CHARGES


@<TRIPOS>ATOM
      1 O1          1.9111    3.3103   47.9804 O.2     1  ZINC000680410869   -0.5200
      2 C2          1.4493    2.4963   48.7565 C.2     1  ZINC000680410869    0.6100
      3 C3          2.1414    2.2157   50.0309 C.2     1  ZINC000680410869    0.0100
      4 N4          3.1037    1.3358   50.2237 N.2     1  ZINC000680410869   -0.2500
      5 N5          3.4773    1.3533   51.4528 N.pl3   1  ZINC000680410869   -0.3500
      6 C6          4.5278    0.5051   52.0212 C.3     1  ZINC000680410869    0.5000
      7 F7          5.4831    0.2241   51.0385 F       1  ZINC000680410869   -0.1600
      8 F8          5.1389    1.1718   53.0885 F       1  ZINC000680410869   -0.1700
      9 C9          2.7628    2.2663   52.1451 C.2     1  ZINC000680410869    0.0100
     10 C10         1.9016    2.8447   51.2756 C.2     1  ZINC000680410869   -0.1700
     11 N11         0.3031    1.8540   48.4565 N.am    1  ZINC000680410869   -0.6000
     12 C12        -0.2782    0.8692   49.3825 C.3     1  ZINC000680410869    0.0800
     13 C13        -0.5796   -0.4129   48.5982 C.3     1  ZINC000680410869    0.0500
     14 O14        -1.3604   -0.0872   47.4457 O.3     1  ZINC000680410869   -0.3700
     15 C15        -0.6997    0.7743   46.5156 C.3     1  ZINC000680410869    0.0800
     16 H16         0.2354    0.3150   46.1948 H       1  ZINC000680410869    0.0600
     17 C17        -1.6010    1.0012   45.3002 C.3     1  ZINC000680410869   -0.1000
     18 C18        -1.6372   -0.2689   44.4479 C.3     1  ZINC000680410869   -0.0800
     19 C19        -0.6360   -0.1510   43.3278 C.ar    1  ZINC000680410869   -0.0800
     20 C20         0.4877    0.6385   43.4856 C.ar    1  ZINC000680410869   -0.1200
     21 C21         1.4061    0.7467   42.4581 C.ar    1  ZINC000680410869   -0.1200
     22 C22         1.2012    0.0649   41.2731 C.ar    1  ZINC000680410869   -0.1300
     23 C23         0.0780   -0.7254   41.1158 C.ar    1  ZINC000680410869   -0.1200
     24 C24        -0.8383   -0.8370   42.1448 C.ar    1  ZINC000680410869   -0.1200
     25 C25        -0.4074    2.1214   47.1959 C.3     1  ZINC000680410869    0.0600
     26 H26         4.0890   -0.4266   52.3782 H       1  ZINC000680410869    0.1700
     27 H27         2.8629    2.4955   53.1958 H       1  ZINC000680410869    0.1900
     28 H28         1.1794    3.6190   51.4882 H       1  ZINC000680410869    0.1700
     29 H29         0.4315    0.6528   50.1811 H       1  ZINC000680410869    0.1000
     30 H30        -1.2005    1.2649   49.8077 H       1  ZINC000680410869    0.0800
     31 H31         0.3559   -0.8765   48.2850 H       1  ZINC000680410869    0.0600
     32 H32        -1.1356   -1.1047   49.2310 H       1  ZINC000680410869    0.1100
     33 H33        -2.6095    1.2426   45.6357 H       1  ZINC000680410869    0.0800
     34 H34        -1.2086    1.8264   44.7059 H       1  ZINC000680410869    0.0800
     35 H35        -1.3887   -1.1300   45.0683 H       1  ZINC000680410869    0.0700
     36 H36        -2.6359   -0.3980   44.0306 H       1  ZINC000680410869    0.0800
     37 H37         0.6478    1.1712   44.4113 H       1  ZINC000680410869    0.1200
     38 H38         2.2837    1.3641   42.5811 H       1  ZINC000680410869    0.1200
     39 H39         1.9184    0.1500   40.4701 H       1  ZINC000680410869    0.1200
     40 H40        -0.0824   -1.2578   40.1899 H       1  ZINC000680410869    0.1200
     41 H41        -1.7159   -1.4543   42.0219 H       1  ZINC000680410869    0.1200
     42 H42        -1.3438    2.6409   47.3990 H       1  ZINC000680410869    0.0800
     43 H43         0.2187    2.7327   46.5459 H       1  ZINC000680410869    0.1300
@<TRIPOS>BOND
     1     1     2    2
     2     2     3    1
     3     2    11   am
     4     3    10    1
     5     3     4    2
     6     4     5    1
     7     5     6    1
     8     5     9    1
     9     6     7    1
    10     6     8    1
    11     6    26    1
    12     9    10    2
    13     9    27    1
    14    10    28    1
    15    11    25    1
    16    11    12    1
    17    12    13    1
    18    12    29    1
    19    12    30    1
    20    13    14    1
    21    13    31    1
    22    13    32    1
    23    14    15    1
    24    15    16    1
    25    15    17    1
    26    15    25    1
    27    17    18    1
    28    17    33    1
    29    17    34    1
    30    18    19    1
    31    18    35    1
    32    18    36    1
    33    19    24   ar
    34    19    20   ar
    35    20    21   ar
    36    20    37    1
    37    21    22   ar
    38    21    38    1
    39    22    23   ar
    40    22    39    1
    41    23    24   ar
    42    23    40    1
    43    24    41    1
    44    25    42    1
    45    25    43    1
@<TRIPOS>SUBSTRUCTURE
     1 ZINC000680410869        1 TEMP              0 ****  ****    0 ROOT


##########                                Name:    ZINC000371438955
##########                DOCK_Rotatable_Bonds:                   4
##########                         Heavy_Atoms:                  25
##########                    Molecular_Weight:             387.499
##########                DOCK_Rotatable_Bonds:                   4
##########                       Formal_Charge:          -0.0299995
##########                     HBond_Acceptors:                   9
##########                        HBond_Donors:                   1
##########                         Heavy_Atoms:                  25
##########                          Grid_Score:          -29.668846
##########                     Grid_vdw_energy:          -28.763853
##########                      Grid_es_energy:           -0.904992
##########           Internal_energy_repulsive:           34.027298

@<TRIPOS>MOLECULE
ZINC000371438955
 47 49 1 0 0
SMALL
USER_CHARGES


@<TRIPOS>ATOM
      1 C1         -2.1569    1.9417   46.2593 C.3     1  ZINC000371438955   -0.6800
      2 S2         -0.5225    1.7653   45.4925 S.o2    1  ZINC000371438955    2.6000
      3 O3         -0.5868    0.8859   44.3781 O.2     1  ZINC000371438955   -0.9500
      4 O4          0.1205    3.0286   45.3928 O.2     1  ZINC000371438955   -0.9500
      5 N5          0.3730    0.9387   46.6138 N.am    1  ZINC000371438955   -0.9900
      6 C6         -0.0592   -0.3673   47.0214 C.3     1  ZINC000371438955    0.1300
      7 C7         -1.0659   -0.1963   48.1713 C.3     1  ZINC000371438955   -0.1700
      8 C8         -0.3939    0.0837   49.4500 C.3     1  ZINC000371438955    0.1400
      9 N9          0.4320    1.3095   49.3405 N.am    1  ZINC000371438955   -0.6200
     10 C10        -0.0128    2.4699   49.8623 C.2     1  ZINC000371438955    0.7100
     11 O11         0.6643    3.4757   49.7729 O.2     1  ZINC000371438955   -0.5800
     12 N12        -1.2081    2.5151   50.4834 N.am    1  ZINC000371438955   -0.7400
     13 C13        -1.6915    3.7764   51.0507 C.3     1  ZINC000371438955    0.2000
     14 H14        -1.4820    4.5790   50.3435 H       1  ZINC000371438955    0.1100
     15 C15        -0.9340    4.0525   52.3378 C.3     1  ZINC000371438955   -0.1300
     16 C16        -1.4065    5.3933   52.9171 C.3     1  ZINC000371438955   -0.1100
     17 S17        -3.0767    5.1365   53.5825 S.3     1  ZINC000371438955   -0.1000
     18 C18        -3.8770    4.2489   52.2842 C.ar    1  ZINC000371438955   -0.1100
     19 C19        -5.2685    4.1296   52.3399 C.ar    1  ZINC000371438955    0.1100
     20 F20        -5.9487    4.6954   53.3609 F       1  ZINC000371438955   -0.1300
     21 C21        -5.9536    3.4397   51.3613 C.ar    1  ZINC000371438955   -0.1300
     22 C22        -5.2524    2.8597   50.3195 C.ar    1  ZINC000371438955   -0.1000
     23 C23        -3.8810    2.9786   50.2611 C.ar    1  ZINC000371438955   -0.1000
     24 C24        -3.1768    3.6793   51.2408 C.ar    1  ZINC000371438955   -0.0800
     25 C25         1.7060    1.2618   48.6792 C.3     1  ZINC000371438955    0.1000
     26 C26         1.6037    1.5719   47.1617 C.3     1  ZINC000371438955    0.0900
     27 H27        -2.5711    0.9543   46.4631 H       1  ZINC000371438955    0.1300
     28 H28        -2.0623    2.4958   47.1931 H       1  ZINC000371438955    0.1300
     29 H29        -2.8195    2.4810   45.5824 H       1  ZINC000371438955    0.1300
     30 H30        -0.5385   -0.8748   46.1842 H       1  ZINC000371438955    0.0800
     31 H31         0.7968   -0.9484   47.3642 H       1  ZINC000371438955    0.0800
     32 H32        -1.7378    0.6289   47.9353 H       1  ZINC000371438955    0.0800
     33 H33        -1.6505   -1.1110   48.2703 H       1  ZINC000371438955    0.0900
     34 H34        -1.1438    0.2224   50.2288 H       1  ZINC000371438955    0.0900
     35 H35         0.2448   -0.7592   49.7140 H       1  ZINC000371438955    0.0700
     36 H36        -1.7482    1.7126   50.5547 H       1  ZINC000371438955    0.4000
     37 H37        -1.1308    3.2556   53.0550 H       1  ZINC000371438955    0.0900
     38 H38         0.1346    4.1016   52.1288 H       1  ZINC000371438955    0.1000
     39 H39        -0.7344    5.7102   53.7145 H       1  ZINC000371438955    0.1200
     40 H40        -1.4326    6.1483   52.1311 H       1  ZINC000371438955    0.1000
     41 H41        -7.0290    3.3528   51.4084 H       1  ZINC000371438955    0.1400
     42 H42        -5.7800    2.3133   49.5519 H       1  ZINC000371438955    0.1300
     43 H43        -3.3426    2.5206   49.4446 H       1  ZINC000371438955    0.1400
     44 H44         2.3719    1.9891   49.1438 H       1  ZINC000371438955    0.0800
     45 H45         2.1315    0.2663   48.8049 H       1  ZINC000371438955    0.0900
     46 H46         2.4813    1.1769   46.6501 H       1  ZINC000371438955    0.0800
     47 H47         1.5512    2.6505   47.0139 H       1  ZINC000371438955    0.1000
@<TRIPOS>BOND
     1     1     2    1
     2     1    27    1
     3     1    28    1
     4     1    29    1
     5     2     3    2
     6     2     4    2
     7     2     5   am
     8     5    26    1
     9     5     6    1
    10     6     7    1
    11     6    30    1
    12     6    31    1
    13     7     8    1
    14     7    32    1
    15     7    33    1
    16     8     9    1
    17     8    34    1
    18     8    35    1
    19     9    10   am
    20     9    25    1
    21    10    11    2
    22    10    12   am
    23    12    13    1
    24    12    36    1
    25    13    14    1
    26    13    24    1
    27    13    15    1
    28    15    16    1
    29    15    37    1
    30    15    38    1
    31    16    17    1
    32    16    39    1
    33    16    40    1
    34    17    18    1
    35    18    24   ar
    36    18    19   ar
    37    19    20    1
    38    19    21   ar
    39    21    22   ar
    40    21    41    1
    41    22    23   ar
    42    22    42    1
    43    23    24   ar
    44    23    43    1
    45    25    26    1
    46    25    44    1
    47    25    45    1
    48    26    46    1
    49    26    47    1
@<TRIPOS>SUBSTRUCTURE
     1 ZINC000371438955        1 TEMP              0 ****  ****    0 ROOT


##########                                Name:    ZINC000676204775
##########                DOCK_Rotatable_Bonds:                   4
##########                         Heavy_Atoms:                  25
##########                    Molecular_Weight:             359.452
##########                DOCK_Rotatable_Bonds:                   4
##########                       Formal_Charge:          0.00999978
##########                     HBond_Acceptors:                   8
##########                        HBond_Donors:                   2
##########                         Heavy_Atoms:                  25
##########                          Grid_Score:          -29.667700
##########                     Grid_vdw_energy:          -30.904207
##########                      Grid_es_energy:            1.236507
##########           Internal_energy_repulsive:            9.549259

@<TRIPOS>MOLECULE
ZINC000676204775
 46 49 1 0 0
SMALL
USER_CHARGES


@<TRIPOS>ATOM
      1 C1          0.1679    0.8960   44.1781 C.3     1  ZINC000676204775   -0.1600
      2 C2         -1.2300    0.6848   44.7633 C.3     1  ZINC000676204775    0.1600
      3 C3         -1.9063   -0.4915   44.0564 C.3     1  ZINC000676204775   -0.1600
      4 N4         -1.1213    0.3969   46.1956 N.pl3   1  ZINC000676204775   -0.3900
      5 N5         -1.3912   -0.8362   46.7982 N.2     1  ZINC000676204775   -0.2500
      6 C6         -1.1976   -0.7579   48.0837 C.2     1  ZINC000676204775    0.0900
      7 C7         -0.7706    0.6039   48.3881 C.ar    1  ZINC000676204775   -0.2100
      8 C8         -0.4238    1.2739   49.5664 C.ar    1  ZINC000676204775    0.0800
      9 C9         -0.0582    2.5880   49.5130 C.ar    1  ZINC000676204775   -0.7200
     10 S10         0.3793    3.4330   50.9959 S.o2    1  ZINC000676204775    2.6900
     11 O11         1.1588    2.5239   51.7608 O.2     1  ZINC000676204775   -0.9300
     12 O12         0.8448    4.7170   50.6037 O.2     1  ZINC000676204775   -0.9600
     13 N13        -1.0184    3.6827   51.8483 N.am    1  ZINC000676204775   -1.1100
     14 C14        -2.1054    4.4684   51.2588 C.3     1  ZINC000676204775    0.2400
     15 H15        -1.7285    5.0382   50.4095 H       1  ZINC000676204775    0.1000
     16 C16        -2.6806    5.4258   52.3100 C.3     1  ZINC000676204775   -0.1200
     17 C17        -3.9618    6.0702   51.7760 C.3     1  ZINC000676204775   -0.1200
     18 C18        -5.0885    5.0301   51.7404 C.3     1  ZINC000676204775   -0.0400
     19 C19        -4.5745    3.8032   51.0284 C.2     1  ZINC000676204775   -0.2300
     20 C20        -5.2813    2.7848   50.5045 C.2     1  ZINC000676204775    0.0600
     21 N21        -4.4019    1.9117   49.9641 N.pl3   1  ZINC000676204775   -0.4800
     22 N22        -3.1088    2.4172   50.1672 N.2     1  ZINC000676204775   -0.2400
     23 C23        -3.2109    3.5469   50.8036 C.2     1  ZINC000676204775    0.0500
     24 C24        -0.0275    3.2654   48.3005 C.ar    1  ZINC000676204775    0.0100
     25 C25        -0.3618    2.6327   47.1365 C.ar    1  ZINC000676204775   -0.1500
     26 C26        -0.7335    1.2909   47.1591 C.ar    1  ZINC000676204775    0.1700
     27 H27         0.6498    1.7340   44.6817 H       1  ZINC000676204775    0.0600
     28 H28         0.7625   -0.0059   44.3233 H       1  ZINC000676204775    0.0700
     29 H29         0.0871    1.1102   43.1124 H       1  ZINC000676204775    0.0800
     30 H30        -1.8246    1.5867   44.6180 H       1  ZINC000676204775    0.1000
     31 H31        -1.3117   -1.3933   44.2017 H       1  ZINC000676204775    0.0700
     32 H32        -2.9022   -0.6419   44.4733 H       1  ZINC000676204775    0.0600
     33 H33        -1.9871   -0.2772   42.9907 H       1  ZINC000676204775    0.0800
     34 H34        -1.3298   -1.5580   48.7971 H       1  ZINC000676204775    0.2000
     35 H35        -0.4455    0.7544   50.5129 H       1  ZINC000676204775    0.1500
     36 H36        -1.1174    3.3087   52.7379 H       1  ZINC000676204775    0.4200
     37 H37        -2.9062    4.8711   53.2207 H       1  ZINC000676204775    0.0800
     38 H38        -1.9491    6.2028   52.5315 H       1  ZINC000676204775    0.0800
     39 H39        -4.2508    6.8956   52.4267 H       1  ZINC000676204775    0.0700
     40 H40        -3.7851    6.4481   50.7690 H       1  ZINC000676204775    0.0700
     41 H41        -5.3808    4.7695   52.7576 H       1  ZINC000676204775    0.0700
     42 H42        -5.9459    5.4350   51.2029 H       1  ZINC000676204775    0.0700
     43 H43        -6.3565    2.6835   50.5139 H       1  ZINC000676204775    0.1800
     44 H44        -4.6255    1.0816   49.5148 H       1  ZINC000676204775    0.4400
     45 H45         0.2639    4.3051   48.2777 H       1  ZINC000676204775    0.1500
     46 H46        -0.3337    3.1709   46.2006 H       1  ZINC000676204775    0.1300
@<TRIPOS>BOND
     1     1     2    1
     2     1    27    1
     3     1    28    1
     4     1    29    1
     5     2     3    1
     6     2     4    1
     7     2    30    1
     8     3    31    1
     9     3    32    1
    10     3    33    1
    11     4    26    1
    12     4     5    1
    13     5     6    2
    14     6     7    1
    15     6    34    1
    16     7    26   ar
    17     7     8   ar
    18     8     9   ar
    19     8    35    1
    20     9    10    1
    21     9    24   ar
    22    10    11    2
    23    10    12    2
    24    10    13   am
    25    13    14    1
    26    13    36    1
    27    14    15    1
    28    14    23    1
    29    14    16    1
    30    16    17    1
    31    16    37    1
    32    16    38    1
    33    17    18    1
    34    17    39    1
    35    17    40    1
    36    18    19    1
    37    18    41    1
    38    18    42    1
    39    19    23    1
    40    19    20    2
    41    20    21    1
    42    20    43    1
    43    21    22    1
    44    21    44    1
    45    22    23    2
    46    24    25   ar
    47    24    45    1
    48    25    26   ar
    49    25    46    1
@<TRIPOS>SUBSTRUCTURE
     1 ZINC000676204775        1 TEMP              0 ****  ****    0 ROOT


##########                                Name:    ZINC000560467340
##########                DOCK_Rotatable_Bonds:                   7
##########                         Heavy_Atoms:                  24
##########                    Molecular_Weight:             369.481
##########                DOCK_Rotatable_Bonds:                   7
##########                       Formal_Charge:          -0.0199997
##########                     HBond_Acceptors:                   7
##########                        HBond_Donors:                   2
##########                         Heavy_Atoms:                  24
##########                          Grid_Score:          -29.642717
##########                     Grid_vdw_energy:          -28.929686
##########                      Grid_es_energy:           -0.713031
##########           Internal_energy_repulsive:           27.441765

@<TRIPOS>MOLECULE
ZINC000560467340
 44 46 1 0 0
SMALL
USER_CHARGES


@<TRIPOS>ATOM
      1 O1         -0.7689    3.8754   45.4070 O.2     1  ZINC000560467340   -0.9600
      2 S2          0.2961    3.0053   45.0491 S.o2    1  ZINC000560467340    2.7100
      3 O3          1.3431    3.3809   44.1648 O.2     1  ZINC000560467340   -0.9500
      4 N4          1.0218    2.5474   46.4654 N.am    1  ZINC000560467340   -1.0900
      5 C5          0.2199    1.9657   47.5447 C.3     1  ZINC000560467340    0.1400
      6 C6          1.1405    1.2511   48.5360 C.3     1  ZINC000560467340   -0.0500
      7 C7          0.3282    0.7302   49.7232 C.3     1  ZINC000560467340   -0.0700
      8 C8         -0.8629    1.6256   49.9485 C.ar    1  ZINC000560467340   -0.0900
      9 C9         -2.1012    1.2665   49.4497 C.ar    1  ZINC000560467340   -0.0900
     10 C10        -3.1941    2.0869   49.6557 C.ar    1  ZINC000560467340   -0.1500
     11 C11        -3.0485    3.2687   50.3623 C.ar    1  ZINC000560467340    0.1000
     12 F12        -4.1163    4.0711   50.5647 F       1  ZINC000560467340   -0.1400
     13 C13        -1.8080    3.6271   50.8618 C.ar    1  ZINC000560467340   -0.1500
     14 C14        -0.7174    2.8028   50.6587 C.ar    1  ZINC000560467340   -0.0900
     15 C15         2.2381    2.2168   49.0284 C.3     1  ZINC000560467340   -0.1300
     16 C16         3.4995    1.3266   49.1524 C.3     1  ZINC000560467340   -0.1200
     17 C17         3.3728    0.3821   47.9314 C.3     1  ZINC000560467340   -0.1600
     18 C18         1.8619    0.0846   47.8385 C.3     1  ZINC000560467340    0.1100
     19 H19         1.6341   -0.8525   48.3464 H       1  ZINC000560467340    0.0600
     20 O20         1.4613    0.0086   46.4689 O.3     1  ZINC000560467340   -0.5500
     21 C21        -0.4486    1.5667   44.3557 C.2     1  ZINC000560467340   -0.6900
     22 C22         0.1953    0.7634   43.5077 C.2     1  ZINC000560467340   -0.1000
     23 S23        -0.8609   -0.5599   43.0313 S.3     1  ZINC000560467340    0.1500
     24 C24        -2.1559    0.0710   44.0406 C.2     1  ZINC000560467340   -0.2200
     25 C25        -1.7441    1.1814   44.6543 C.2     1  ZINC000560467340   -0.0700
     26 H26         1.9778    2.6642   46.5805 H       1  ZINC000560467340    0.4200
     27 H27        -0.3245    2.7571   48.0599 H       1  ZINC000560467340    0.0600
     28 H28        -0.4884    1.2506   47.1262 H       1  ZINC000560467340    0.0800
     29 H29        -0.0138   -0.2832   49.5129 H       1  ZINC000560467340    0.0800
     30 H30         0.9528    0.7249   50.6165 H       1  ZINC000560467340    0.0800
     31 H31        -2.2144    0.3447   48.8986 H       1  ZINC000560467340    0.1300
     32 H32        -4.1612    1.8065   49.2653 H       1  ZINC000560467340    0.1400
     33 H33        -1.6931    4.5489   51.4128 H       1  ZINC000560467340    0.1400
     34 H34         0.2504    3.0820   51.0485 H       1  ZINC000560467340    0.1300
     35 H35         2.4020    3.0112   48.3001 H       1  ZINC000560467340    0.0700
     36 H36         1.9703    2.6362   49.9981 H       1  ZINC000560467340    0.0800
     37 H37         4.4055    1.9286   49.0828 H       1  ZINC000560467340    0.0700
     38 H38         3.4821    0.7594   50.0830 H       1  ZINC000560467340    0.0700
     39 H39         3.7199    0.8802   47.0262 H       1  ZINC000560467340    0.0800
     40 H40         3.9330   -0.5375   48.1007 H       1  ZINC000560467340    0.0700
     41 H41         1.8239   -0.7520   45.9946 H       1  ZINC000560467340    0.3800
     42 H42         1.2100    0.9041   43.1655 H       1  ZINC000560467340    0.1800
     43 H43        -3.1333   -0.3751   44.1502 H       1  ZINC000560467340    0.1700
     44 H44        -2.3764    1.7417   45.3272 H       1  ZINC000560467340    0.1500
@<TRIPOS>BOND
     1     1     2    2
     2     2     3    2
     3     2     4   am
     4     2    21    1
     5     4     5    1
     6     4    26    1
     7     5     6    1
     8     5    27    1
     9     5    28    1
    10     6    18    1
    11     6     7    1
    12     6    15    1
    13     7     8    1
    14     7    29    1
    15     7    30    1
    16     8    14   ar
    17     8     9   ar
    18     9    10   ar
    19     9    31    1
    20    10    11   ar
    21    10    32    1
    22    11    12    1
    23    11    13   ar
    24    13    14   ar
    25    13    33    1
    26    14    34    1
    27    15    16    1
    28    15    35    1
    29    15    36    1
    30    16    17    1
    31    16    37    1
    32    16    38    1
    33    17    18    1
    34    17    39    1
    35    17    40    1
    36    18    19    1
    37    18    20    1
    38    20    41    1
    39    21    25    1
    40    21    22    2
    41    22    23    1
    42    22    42    1
    43    23    24    1
    44    24    25    2
    45    24    43    1
    46    25    44    1
@<TRIPOS>SUBSTRUCTURE
     1 ZINC000560467340        1 TEMP              0 ****  ****    0 ROOT


##########                                Name:    ZINC000549659617
##########                DOCK_Rotatable_Bonds:                   9
##########                         Heavy_Atoms:                  28
##########                    Molecular_Weight:              418.48
##########                DOCK_Rotatable_Bonds:                   9
##########                       Formal_Charge:          0.00999956
##########                     HBond_Acceptors:                   9
##########                        HBond_Donors:                   1
##########                         Heavy_Atoms:                  28
##########                          Grid_Score:          -29.626776
##########                     Grid_vdw_energy:          -28.408978
##########                      Grid_es_energy:           -1.217799
##########           Internal_energy_repulsive:           24.143852

@<TRIPOS>MOLECULE
ZINC000549659617
 53 55 1 0 0
SMALL
USER_CHARGES


@<TRIPOS>ATOM
      1 C1          3.7195    2.0564   51.8921 C.3     1  ZINC000549659617   -0.1500
      2 C2          2.6796    1.3373   51.0305 C.3     1  ZINC000549659617   -0.1500
      3 C3          2.2418    2.2552   49.8874 C.3     1  ZINC000549659617    0.1100
      4 N4          0.7955    2.4757   49.9649 N.am    1  ZINC000549659617   -0.6100
      5 C5          0.3031    3.4419   50.7651 C.2     1  ZINC000549659617    0.7100
      6 O6          1.0590    4.1296   51.4239 O.2     1  ZINC000549659617   -0.5700
      7 N7         -1.0274    3.6459   50.8351 N.am    1  ZINC000549659617   -0.7400
      8 C8         -1.5627    4.6951   51.7062 C.3     1  ZINC000549659617    0.2300
      9 H9         -1.1514    5.6596   51.4085 H       1  ZINC000549659617    0.1100
     10 C10        -3.0645    4.7306   51.5854 C.ar    1  ZINC000549659617   -0.0900
     11 C11        -3.7392    5.9309   51.7057 C.ar    1  ZINC000549659617   -0.0800
     12 C12        -5.1169    5.9635   51.5948 C.ar    1  ZINC000549659617   -0.1100
     13 C13        -5.8194    4.7959   51.3633 C.ar    1  ZINC000549659617   -0.0700
     14 C14        -5.1444    3.5954   51.2421 C.ar    1  ZINC000549659617   -0.1800
     15 C15        -5.9103    2.3223   50.9901 C.3     1  ZINC000549659617    0.5100
     16 F16        -6.2967    1.7609   52.2119 F       1  ZINC000549659617   -0.1800
     17 F17        -7.0479    2.6059   50.2267 F       1  ZINC000549659617   -0.1700
     18 F18        -5.0976    1.4183   50.2978 F       1  ZINC000549659617   -0.1700
     19 C19        -3.7667    3.5635   51.3486 C.ar    1  ZINC000549659617   -0.0500
     20 C20        -1.1745    4.4010   53.1566 C.3     1  ZINC000549659617   -0.1700
     21 C21        -0.5670    5.5447   53.9712 C.3     1  ZINC000549659617   -0.1700
     22 C22        -1.9947    5.0754   54.2582 C.3     1  ZINC000549659617   -0.1800
     23 C23        -0.1155    1.6460   49.1724 C.3     1  ZINC000549659617    0.1700
     24 H24        -1.1443    1.8126   49.4913 H       1  ZINC000549659617    0.1100
     25 C25         0.2517    0.1603   49.3317 C.3     1  ZINC000549659617   -0.1400
     26 C26        -0.4823   -0.6497   48.2445 C.3     1  ZINC000549659617   -0.5900
     27 S27        -0.7118    0.5175   46.8550 S.o2    1  ZINC000549659617    2.3900
     28 O28         0.1043    0.1162   45.7631 O.2     1  ZINC000549659617   -0.9300
     29 O29        -2.1003    0.7442   46.6548 O.2     1  ZINC000549659617   -0.9400
     30 C30         0.0346    1.9822   47.6663 C.3     1  ZINC000549659617   -0.6100
     31 H31         4.0314    1.4026   52.7066 H       1  ZINC000549659617    0.0600
     32 H32         4.5843    2.3123   51.2800 H       1  ZINC000549659617    0.0600
     33 H33         3.2836    2.9668   52.3036 H       1  ZINC000549659617    0.0600
     34 H34         3.1155    0.4270   50.6190 H       1  ZINC000549659617    0.0700
     35 H35         1.8148    1.0815   51.6427 H       1  ZINC000549659617    0.0700
     36 H36         2.7600    3.2106   49.9697 H       1  ZINC000549659617    0.0800
     37 H37         2.4876    1.7895   48.9330 H       1  ZINC000549659617    0.0900
     38 H38        -1.6304    3.0981   50.3086 H       1  ZINC000549659617    0.4000
     39 H39        -3.1903    6.8432   51.8866 H       1  ZINC000549659617    0.1300
     40 H40        -5.6442    6.9012   51.6896 H       1  ZINC000549659617    0.1400
     41 H41        -6.8957    4.8212   51.2774 H       1  ZINC000549659617    0.1400
     42 H42        -3.2394    2.6258   51.2539 H       1  ZINC000549659617    0.1400
     43 H43        -0.8050    3.3938   53.3494 H       1  ZINC000549659617    0.1100
     44 H44         0.2025    5.2901   54.7001 H       1  ZINC000549659617    0.0900
     45 H45        -0.4438    6.5068   53.4739 H       1  ZINC000549659617    0.0900
     46 H46        -2.8108    5.7287   53.9495 H       1  ZINC000549659617    0.1200
     47 H47        -2.1645    4.5121   55.1757 H       1  ZINC000549659617    0.0900
     48 H48         1.3284    0.0346   49.2181 H       1  ZINC000549659617    0.1100
     49 H49        -0.0541   -0.1891   50.3180 H       1  ZINC000549659617    0.0900
     50 H50         0.1253   -1.4982   47.9296 H       1  ZINC000549659617    0.1400
     51 H51        -1.4486   -0.9918   48.6149 H       1  ZINC000549659617    0.1400
     52 H52        -0.5173    2.8876   47.4140 H       1  ZINC000549659617    0.1400
     53 H53         1.0859    2.0805   47.3955 H       1  ZINC000549659617    0.1600
@<TRIPOS>BOND
     1     1     2    1
     2     1    31    1
     3     1    32    1
     4     1    33    1
     5     2     3    1
     6     2    34    1
     7     2    35    1
     8     3     4    1
     9     3    36    1
    10     3    37    1
    11     4     5   am
    12     4    23    1
    13     5     6    2
    14     5     7   am
    15     7     8    1
    16     7    38    1
    17     8     9    1
    18     8    10    1
    19     8    20    1
    20    10    19   ar
    21    10    11   ar
    22    11    12   ar
    23    11    39    1
    24    12    13   ar
    25    12    40    1
    26    13    14   ar
    27    13    41    1
    28    14    15    1
    29    14    19   ar
    30    15    16    1
    31    15    17    1
    32    15    18    1
    33    19    42    1
    34    20    22    1
    35    20    21    1
    36    20    43    1
    37    21    22    1
    38    21    44    1
    39    21    45    1
    40    22    46    1
    41    22    47    1
    42    23    24    1
    43    23    30    1
    44    23    25    1
    45    25    26    1
    46    25    48    1
    47    25    49    1
    48    26    27    1
    49    26    50    1
    50    26    51    1
    51    27    28    2
    52    27    29    2
    53    27    30    1
    54    30    52    1
    55    30    53    1
@<TRIPOS>SUBSTRUCTURE
     1 ZINC000549659617        1 TEMP              0 ****  ****    0 ROOT


##########                                Name:    ZINC001078748831
##########                DOCK_Rotatable_Bonds:                   6
##########                         Heavy_Atoms:                  23
##########                    Molecular_Weight:             333.417
##########                DOCK_Rotatable_Bonds:                   6
##########                       Formal_Charge:           0.0299999
##########                     HBond_Acceptors:                   9
##########                        HBond_Donors:                   2
##########                         Heavy_Atoms:                  23
##########                          Grid_Score:          -29.597885
##########                     Grid_vdw_energy:          -28.769289
##########                      Grid_es_energy:           -0.828595
##########           Internal_energy_repulsive:            6.373745

@<TRIPOS>MOLECULE
ZINC001078748831
 42 45 1 0 0
SMALL
USER_CHARGES


@<TRIPOS>ATOM
      1 C1         -6.9949    0.8351   51.6704 C.3     1  ZINC001078748831    0.1000
      2 N2         -5.7497    1.6055   51.6213 N.pl3   1  ZINC001078748831   -0.1400
      3 N3         -5.2640    2.2657   52.6111 N.2     1  ZINC001078748831   -0.2900
      4 C4         -4.1457    2.8388   52.2361 C.2     1  ZINC001078748831    0.0400
      5 C5         -3.9617    2.4739   50.8875 C.2     1  ZINC001078748831   -0.0500
      6 C6         -2.8454    2.8623   50.0001 C.2     1  ZINC001078748831    0.6200
      7 O7         -2.1884    3.8544   50.2487 O.2     1  ZINC001078748831   -0.5200
      8 N8         -2.5559    2.1166   48.9154 N.am    1  ZINC001078748831   -0.7000
      9 C9         -1.4504    2.5027   48.0349 C.3     1  ZINC001078748831    0.1500
     10 H10        -0.9746    3.4359   48.3361 H       1  ZINC001078748831    0.1100
     11 C11        -1.8040    2.4447   46.5376 C.3     1  ZINC001078748831   -0.1800
     12 C12        -1.3255    0.9815   46.5561 C.3     1  ZINC001078748831    0.0800
     13 H13        -2.1128    0.2667   46.7955 H       1  ZINC001078748831    0.1000
     14 N14        -0.5495    0.6000   45.3686 N.3     1  ZINC001078748831   -0.6700
     15 C15        -1.3009    0.8771   44.1372 C.3     1  ZINC001078748831    0.1400
     16 C16        -0.5656    0.2941   42.9579 C.2     1  ZINC001078748831    0.0600
     17 N17        -1.1504   -0.3228   41.9689 N.2     1  ZINC001078748831   -0.5700
     18 S18        -0.0553   -0.7743   40.9537 S.3     1  ZINC001078748831    0.6800
     19 N19         1.1999   -0.2228   41.6979 N.2     1  ZINC001078748831   -0.5700
     20 C20         0.8048    0.3569   42.7974 C.2     1  ZINC001078748831    0.0500
     21 C21        -0.4608    1.3700   47.7597 C.3     1  ZINC001078748831   -0.1000
     22 C22         1.0349    1.6459   47.6025 C.3     1  ZINC001078748831   -0.1000
     23 C23         1.1898    1.1530   49.0527 C.3     1  ZINC001078748831   -0.1400
     24 C24        -0.1054    0.3485   48.8406 C.3     1  ZINC001078748831   -0.1200
     25 N25        -4.9967    1.7054   50.5838 N.2     1  ZINC001078748831   -0.2500
     26 H26        -6.7782   -0.1861   51.9841 H       1  ZINC001078748831    0.1000
     27 H27        -7.6797    1.2962   52.3821 H       1  ZINC001078748831    0.1100
     28 H28        -7.4531    0.8219   50.6815 H       1  ZINC001078748831    0.1100
     29 H29        -3.4996    3.4620   52.8365 H       1  ZINC001078748831    0.2100
     30 H30        -3.0794    1.3244   48.7177 H       1  ZINC001078748831    0.4100
     31 H31        -2.8700    2.5523   46.3368 H       1  ZINC001078748831    0.0700
     32 H32        -1.1881    3.0970   45.9186 H       1  ZINC001078748831    0.1000
     33 H33         0.3464    1.0640   45.3577 H       1  ZINC001078748831    0.3500
     34 H34        -2.2911    0.4268   44.2067 H       1  ZINC001078748831    0.1000
     35 H35        -1.4002    1.9547   44.0068 H       1  ZINC001078748831    0.0600
     36 H36         1.4730    0.8267   43.5041 H       1  ZINC001078748831    0.2000
     37 H37         1.5232    1.0052   46.8682 H       1  ZINC001078748831    0.1000
     38 H38         1.2738    2.7012   47.4713 H       1  ZINC001078748831    0.0700
     39 H39         2.0698    0.5291   49.2096 H       1  ZINC001078748831    0.0700
     40 H40         1.0944    1.9453   49.7951 H       1  ZINC001078748831    0.0800
     41 H41        -0.7777    0.3676   49.6984 H       1  ZINC001078748831    0.0700
     42 H42         0.0621   -0.6568   48.4543 H       1  ZINC001078748831    0.0900
@<TRIPOS>BOND
     1     1     2    1
     2     1    26    1
     3     1    27    1
     4     1    28    1
     5     2    25    1
     6     2     3    1
     7     3     4    2
     8     4     5    1
     9     4    29    1
    10     5     6    1
    11     5    25    2
    12     6     7    2
    13     6     8   am
    14     8     9    1
    15     8    30    1
    16     9    10    1
    17     9    21    1
    18     9    11    1
    19    11    12    1
    20    11    31    1
    21    11    32    1
    22    12    13    1
    23    12    14    1
    24    12    21    1
    25    14    15    1
    26    14    33    1
    27    15    16    1
    28    15    34    1
    29    15    35    1
    30    16    20    1
    31    16    17    2
    32    17    18    1
    33    18    19    1
    34    19    20    2
    35    20    36    1
    36    21    24    1
    37    21    22    1
    38    22    23    1
    39    22    37    1
    40    22    38    1
    41    23    24    1
    42    23    39    1
    43    23    40    1
    44    24    41    1
    45    24    42    1
@<TRIPOS>SUBSTRUCTURE
     1 ZINC001078748831        1 TEMP              0 ****  ****    0 ROOT


##########                                Name:    ZINC000535362552
##########                DOCK_Rotatable_Bonds:                   5
##########                         Heavy_Atoms:                  26
##########                    Molecular_Weight:             416.228
##########                DOCK_Rotatable_Bonds:                   5
##########                       Formal_Charge:         -0.00999981
##########                     HBond_Acceptors:                   6
##########                        HBond_Donors:                   1
##########                         Heavy_Atoms:                  26
##########                          Grid_Score:          -29.477064
##########                     Grid_vdw_energy:          -30.364758
##########                      Grid_es_energy:            0.887693
##########           Internal_energy_repulsive:            6.290860

@<TRIPOS>MOLECULE
ZINC000535362552
 40 43 1 0 0
SMALL
USER_CHARGES


@<TRIPOS>ATOM
      1 C1        -12.4838   -2.0049   56.4233 C.3     1  ZINC000535362552    0.0300
      2 O2        -11.3797   -1.7608   55.5126 O.3     1  ZINC000535362552   -0.3400
      3 C3        -11.0545   -0.4736   55.2757 C.2     1  ZINC000535362552    0.5500
      4 O4        -11.6527    0.4191   55.8446 O.2     1  ZINC000535362552   -0.4800
      5 C5         -9.9785   -0.1502   54.3309 C.2     1  ZINC000535362552   -0.0100
      6 C6         -9.5021    1.0988   54.0858 C.2     1  ZINC000535362552   -0.0900
      7 C7         -8.4467    0.9407   53.0861 C.ar    1  ZINC000535362552   -0.1300
      8 C8         -7.5881    1.8265   52.4310 C.ar    1  ZINC000535362552   -0.0600
      9 C9         -6.6769    1.3389   51.5130 C.ar    1  ZINC000535362552    0.1200
     10 N10        -5.8114    2.2201   50.8516 N.am    1  ZINC000535362552   -0.6700
     11 C11        -4.9198    2.9447   51.5562 C.2     1  ZINC000535362552    0.5200
     12 O12        -4.8665    2.8339   52.7629 O.2     1  ZINC000535362552   -0.5000
     13 C13        -3.9890    3.8925   50.8448 C.3     1  ZINC000535362552   -0.1000
     14 H14        -4.5179    4.4456   50.0686 H       1  ZINC000535362552    0.1300
     15 C15        -3.3107    4.8572   51.8462 C.3     1  ZINC000535362552    0.0600
     16 O16        -1.9881    5.0030   51.3018 O.3     1  ZINC000535362552   -0.2900
     17 C17        -1.6639    3.8797   50.6041 C.ar    1  ZINC000535362552    0.1300
     18 C18        -0.4166    3.4019   50.2106 C.ar    1  ZINC000535362552   -0.1300
     19 C19        -0.3169    2.2285   49.4918 C.ar    1  ZINC000535362552   -0.0500
     20 C20        -1.4541    1.5166   49.1551 C.ar    1  ZINC000535362552   -0.1200
     21 Br21       -1.3108   -0.0881   48.1650 Br      1  ZINC000535362552   -0.0400
     22 C22        -2.6977    1.9832   49.5462 C.ar    1  ZINC000535362552   -0.0100
     23 C23        -2.7988    3.1516   50.2669 C.ar    1  ZINC000535362552   -0.1600
     24 C24        -6.6166   -0.0276   51.2442 C.ar    1  ZINC000535362552   -0.0900
     25 C25        -7.4599   -0.9077   51.8851 C.ar    1  ZINC000535362552   -0.0900
     26 C26        -8.3832   -0.4386   52.8122 C.ar    1  ZINC000535362552    0.0700
     27 O27        -9.3089   -1.0488   53.5791 O.3     1  ZINC000535362552   -0.1700
     28 H28       -13.3887   -1.5421   56.0295 H       1  ZINC000535362552    0.0700
     29 H29       -12.6399   -3.0789   56.5254 H       1  ZINC000535362552    0.1100
     30 H30       -12.2518   -1.5772   57.3986 H       1  ZINC000535362552    0.0700
     31 H31        -9.8359    2.0213   54.5373 H       1  ZINC000535362552    0.1800
     32 H32        -7.6361    2.8849   52.6400 H       1  ZINC000535362552    0.1400
     33 H33        -5.8540    2.3087   49.8865 H       1  ZINC000535362552    0.4100
     34 H34        -3.8272    5.8168   51.8683 H       1  ZINC000535362552    0.1200
     35 H35        -3.2720    4.4154   52.8420 H       1  ZINC000535362552    0.0900
     36 H36         0.4762    3.9518   50.4693 H       1  ZINC000535362552    0.1400
     37 H37         0.6540    1.8641   49.1901 H       1  ZINC000535362552    0.1400
     38 H38        -3.5884    1.4308   49.2857 H       1  ZINC000535362552    0.1400
     39 H39        -5.9016   -0.3997   50.5254 H       1  ZINC000535362552    0.1500
     40 H40        -7.4035   -1.9640   51.6673 H       1  ZINC000535362552    0.1500
@<TRIPOS>BOND
     1     1     2    1
     2     1    28    1
     3     1    29    1
     4     1    30    1
     5     2     3    1
     6     3     4    2
     7     3     5    1
     8     5    27    1
     9     5     6    2
    10     6     7    1
    11     6    31    1
    12     7    26   ar
    13     7     8   ar
    14     8     9   ar
    15     8    32    1
    16     9    10    1
    17     9    24   ar
    18    10    11   am
    19    10    33    1
    20    11    12    2
    21    11    13    1
    22    13    14    1
    23    13    23    1
    24    13    15    1
    25    15    16    1
    26    15    34    1
    27    15    35    1
    28    16    17    1
    29    17    23   ar
    30    17    18   ar
    31    18    19   ar
    32    18    36    1
    33    19    20   ar
    34    19    37    1
    35    20    21    1
    36    20    22   ar
    37    22    23   ar
    38    22    38    1
    39    24    25   ar
    40    24    39    1
    41    25    26   ar
    42    25    40    1
    43    26    27    1
@<TRIPOS>SUBSTRUCTURE
     1 ZINC000535362552        1 TEMP              0 ****  ****    0 ROOT


##########                                Name:    ZINC000337709254
##########                DOCK_Rotatable_Bonds:                   7
##########                         Heavy_Atoms:                  22
##########                    Molecular_Weight:              329.42
##########                DOCK_Rotatable_Bonds:                   7
##########                       Formal_Charge:           0.0300004
##########                     HBond_Acceptors:                   8
##########                        HBond_Donors:                   2
##########                         Heavy_Atoms:                  22
##########                          Grid_Score:          -29.462580
##########                     Grid_vdw_energy:          -28.566784
##########                      Grid_es_energy:           -0.895796
##########           Internal_energy_repulsive:           11.542969

@<TRIPOS>MOLECULE
ZINC000337709254
 45 46 1 0 0
SMALL
USER_CHARGES


@<TRIPOS>ATOM
      1 C1         -5.6277    1.9673   51.8362 C.3     1  ZINC000337709254   -0.6700
      2 S2         -5.8169    3.0779   50.4144 S.o2    1  ZINC000337709254    2.6100
      3 O3         -5.5611    2.3831   49.2015 O.2     1  ZINC000337709254   -0.9500
      4 O4         -6.9751    3.8874   50.5648 O.2     1  ZINC000337709254   -0.9500
      5 N5         -4.5549    4.1414   50.5500 N.am    1  ZINC000337709254   -1.1200
      6 C6         -3.1758    3.6477   50.5313 C.3     1  ZINC000337709254    0.1200
      7 C7         -2.2716    4.6320   51.2761 C.3     1  ZINC000337709254   -0.1100
      8 H8         -2.5764    5.6584   51.0714 H       1  ZINC000337709254    0.1100
      9 C9         -2.3024    4.3508   52.7989 C.3     1  ZINC000337709254   -0.1200
     10 C10        -0.9628    4.9571   53.2856 C.3     1  ZINC000337709254   -0.1200
     11 C11         0.0359    4.6216   52.1587 C.3     1  ZINC000337709254   -0.1400
     12 C12        -0.7966    4.4173   50.8783 C.3     1  ZINC000337709254    0.1500
     13 H13        -0.5010    5.1433   50.1209 H       1  ZINC000337709254    0.1000
     14 N14        -0.6084    3.0567   50.3692 N.am    1  ZINC000337709254   -0.7200
     15 C15        -0.2226    2.8621   49.0926 C.2     1  ZINC000337709254    0.5300
     16 O16        -0.0325    3.8136   48.3648 O.2     1  ZINC000337709254   -0.5100
     17 C17        -0.0271    1.4625   48.5694 C.3     1  ZINC000337709254    0.0200
     18 C18         1.4111    1.1920   48.4117 C.1     1  ZINC000337709254    0.2000
     19 N19         2.5212    0.9833   48.2899 N.1     1  ZINC000337709254   -0.3900
     20 C20        -0.6343    0.4581   49.5537 C.3     1  ZINC000337709254   -0.1500
     21 C21        -0.5013   -0.9539   48.9772 C.3     1  ZINC000337709254    0.0600
     22 O22        -1.1467   -1.0097   47.7034 O.3     1  ZINC000337709254   -0.3700
     23 C23        -0.5903   -0.1257   46.7281 C.3     1  ZINC000337709254    0.0600
     24 C24        -0.7270    1.3195   47.2143 C.3     1  ZINC000337709254   -0.1300
     25 H25        -4.6629    1.4634   51.7777 H       1  ZINC000337709254    0.1300
     26 H26        -5.6803    2.5457   52.7586 H       1  ZINC000337709254    0.1300
     27 H27        -6.4262    1.2253   51.8266 H       1  ZINC000337709254    0.1300
     28 H28        -4.7288    5.0913   50.6418 H       1  ZINC000337709254    0.4200
     29 H29        -3.1317    2.6738   51.0188 H       1  ZINC000337709254    0.0600
     30 H30        -2.8377    3.5531   49.4994 H       1  ZINC000337709254    0.0900
     31 H31        -3.1475    4.8547   53.2678 H       1  ZINC000337709254    0.0800
     32 H32        -2.3343    3.2786   52.9931 H       1  ZINC000337709254    0.0700
     33 H33        -1.0539    6.0366   53.4057 H       1  ZINC000337709254    0.0700
     34 H34        -0.6517    4.4932   54.2216 H       1  ZINC000337709254    0.0700
     35 H35         0.7338    5.4474   52.0202 H       1  ZINC000337709254    0.0800
     36 H36         0.5801    3.7091   52.4015 H       1  ZINC000337709254    0.0700
     37 H37        -0.7616    2.2957   50.9509 H       1  ZINC000337709254    0.4000
     38 H38        -0.1049    0.5145   50.5048 H       1  ZINC000337709254    0.0900
     39 H39        -1.6880    0.6907   49.7080 H       1  ZINC000337709254    0.1100
     40 H40         0.5539   -1.2012   48.8610 H       1  ZINC000337709254    0.0500
     41 H41        -0.9699   -1.6685   49.6538 H       1  ZINC000337709254    0.1100
     42 H42         0.4638   -0.3622   46.5826 H       1  ZINC000337709254    0.0500
     43 H43        -1.1232   -0.2437   45.7846 H       1  ZINC000337709254    0.1100
     44 H44        -1.7825    1.5695   47.3214 H       1  ZINC000337709254    0.1100
     45 H45        -0.2637    1.9920   46.4924 H       1  ZINC000337709254    0.0900
@<TRIPOS>BOND
     1     1     2    1
     2     1    25    1
     3     1    26    1
     4     1    27    1
     5     2     3    2
     6     2     4    2
     7     2     5   am
     8     5     6    1
     9     5    28    1
    10     6     7    1
    11     6    29    1
    12     6    30    1
    13     7     8    1
    14     7    12    1
    15     7     9    1
    16     9    10    1
    17     9    31    1
    18     9    32    1
    19    10    11    1
    20    10    33    1
    21    10    34    1
    22    11    12    1
    23    11    35    1
    24    11    36    1
    25    12    13    1
    26    12    14    1
    27    14    15   am
    28    14    37    1
    29    15    16    2
    30    15    17    1
    31    17    24    1
    32    17    18    1
    33    17    20    1
    34    18    19    3
    35    20    21    1
    36    20    38    1
    37    20    39    1
    38    21    22    1
    39    21    40    1
    40    21    41    1
    41    22    23    1
    42    23    24    1
    43    23    42    1
    44    23    43    1
    45    24    44    1
    46    24    45    1
@<TRIPOS>SUBSTRUCTURE
     1 ZINC000337709254        1 TEMP              0 ****  ****    0 ROOT


##########                                Name:    ZINC000581017854
##########                DOCK_Rotatable_Bonds:                   6
##########                         Heavy_Atoms:                  24
##########                    Molecular_Weight:             330.334
##########                DOCK_Rotatable_Bonds:                   6
##########                       Formal_Charge:           0.0099998
##########                     HBond_Acceptors:                   6
##########                        HBond_Donors:                   2
##########                         Heavy_Atoms:                  24
##########                          Grid_Score:          -29.452576
##########                     Grid_vdw_energy:          -29.168676
##########                      Grid_es_energy:           -0.283899
##########           Internal_energy_repulsive:            9.145320

@<TRIPOS>MOLECULE
ZINC000581017854
 40 42 1 0 0
SMALL
USER_CHARGES


@<TRIPOS>ATOM
      1 C1          0.1603   -0.1904   49.4111 C.3     1  ZINC000581017854   -0.1600
      2 C2         -0.2906    1.1806   48.9028 C.3     1  ZINC000581017854    0.1500
      3 H3          0.5561    1.8671   48.9098 H       1  ZINC000581017854    0.1100
      4 C4         -0.8251    1.0448   47.4757 C.3     1  ZINC000581017854    0.0500
      5 O5          0.2666    0.8479   46.5748 O.3     1  ZINC000581017854   -0.3100
      6 C6         -0.0426    0.6210   45.2710 C.ar    1  ZINC000581017854    0.1600
      7 C7         -1.3601    0.3975   44.8985 C.ar    1  ZINC000581017854   -0.2200
      8 C8         -1.6734    0.1669   43.5725 C.ar    1  ZINC000581017854   -0.0500
      9 C9         -0.6754    0.1581   42.6164 C.ar    1  ZINC000581017854   -0.1900
     10 C10         0.6411    0.3804   42.9848 C.ar    1  ZINC000581017854    0.1400
     11 F11         1.6152    0.3714   42.0487 F       1  ZINC000581017854   -0.1300
     12 C12         0.9579    0.6183   44.3103 C.ar    1  ZINC000581017854   -0.1900
     13 N13        -1.3482    1.7005   49.7730 N.am    1  ZINC000581017854   -0.7300
     14 C14        -1.5120    3.0308   49.9136 C.2     1  ZINC000581017854    0.5900
     15 O15        -0.7806    3.8000   49.3188 O.2     1  ZINC000581017854   -0.5400
     16 C16        -2.5737    3.5522   50.7849 C.2     1  ZINC000581017854   -0.2200
     17 C17        -2.4392    4.4954   51.7603 C.2     1  ZINC000581017854    0.1100
     18 N18        -3.6385    4.7187   52.3505 N.pl3   1  ZINC000581017854   -0.5700
     19 C19        -4.6114    3.9242   51.7798 C.ar    1  ZINC000581017854    0.1100
     20 C20        -5.9738    3.7720   52.0142 C.ar    1  ZINC000581017854   -0.1600
     21 C21        -6.7053    2.8747   51.2630 C.ar    1  ZINC000581017854    0.1200
     22 F22        -8.0286    2.7304   51.4937 F       1  ZINC000581017854   -0.1400
     23 C23        -6.0928    2.1189   50.2712 C.ar    1  ZINC000581017854   -0.1700
     24 C24        -4.7442    2.2570   50.0258 C.ar    1  ZINC000581017854   -0.0300
     25 C25        -3.9962    3.1632   50.7727 C.ar    1  ZINC000581017854   -0.0700
     26 H26         0.9471   -0.5772   48.7636 H       1  ZINC000581017854    0.0700
     27 H27         0.5410   -0.0936   50.4277 H       1  ZINC000581017854    0.0700
     28 H28        -0.6864   -0.8769   49.4040 H       1  ZINC000581017854    0.0700
     29 H29        -1.5003    0.1909   47.4203 H       1  ZINC000581017854    0.0700
     30 H30        -1.3634    1.9521   47.2014 H       1  ZINC000581017854    0.0800
     31 H31        -2.1408    0.4034   45.6447 H       1  ZINC000581017854    0.1400
     32 H32        -2.6992   -0.0071   43.2831 H       1  ZINC000581017854    0.1400
     33 H33        -0.9225   -0.0227   41.5807 H       1  ZINC000581017854    0.1400
     34 H34         1.9843    0.7920   44.5982 H       1  ZINC000581017854    0.1400
     35 H35        -1.9305    1.0873   50.2482 H       1  ZINC000581017854    0.4000
     36 H36        -1.5158    4.9901   52.0230 H       1  ZINC000581017854    0.1800
     37 H37        -3.7912    5.3480   53.0728 H       1  ZINC000581017854    0.4200
     38 H38        -6.4586    4.3549   52.7832 H       1  ZINC000581017854    0.1400
     39 H39        -6.6763    1.4198   49.6905 H       1  ZINC000581017854    0.1400
     40 H40        -4.2702    1.6681   49.2545 H       1  ZINC000581017854    0.1500
@<TRIPOS>BOND
     1     1     2    1
     2     1    26    1
     3     1    27    1
     4     1    28    1
     5     2     3    1
     6     2     4    1
     7     2    13    1
     8     4     5    1
     9     4    29    1
    10     4    30    1
    11     5     6    1
    12     6    12   ar
    13     6     7   ar
    14     7     8   ar
    15     7    31    1
    16     8     9   ar
    17     8    32    1
    18     9    10   ar
    19     9    33    1
    20    10    11    1
    21    10    12   ar
    22    12    34    1
    23    13    14   am
    24    13    35    1
    25    14    15    2
    26    14    16    1
    27    16    25    1
    28    16    17    2
    29    17    18    1
    30    17    36    1
    31    18    19    1
    32    18    37    1
    33    19    25   ar
    34    19    20   ar
    35    20    21   ar
    36    20    38    1
    37    21    22    1
    38    21    23   ar
    39    23    24   ar
    40    23    39    1
    41    24    25   ar
    42    24    40    1
@<TRIPOS>SUBSTRUCTURE
     1 ZINC000581017854        1 TEMP              0 ****  ****    0 ROOT


##########                                Name:    ZINC000052999724
##########                DOCK_Rotatable_Bonds:                   6
##########                         Heavy_Atoms:                  25
##########                    Molecular_Weight:             398.571
##########                DOCK_Rotatable_Bonds:                   6
##########                       Formal_Charge:           0.0399994
##########                     HBond_Acceptors:                   8
##########                        HBond_Donors:                   1
##########                         Heavy_Atoms:                  25
##########                          Grid_Score:          -29.429367
##########                     Grid_vdw_energy:          -27.632071
##########                      Grid_es_energy:           -1.797296
##########           Internal_energy_repulsive:           19.223003

@<TRIPOS>MOLECULE
ZINC000052999724
 47 49 1 0 0
SMALL
USER_CHARGES


@<TRIPOS>ATOM
      1 C1          3.0042    4.2588   52.7030 C.3     1  ZINC000052999724   -0.1400
      2 C2          2.3532    3.7640   51.4099 C.3     1  ZINC000052999724   -0.0400
      3 C3          2.6632    2.2780   51.2191 C.3     1  ZINC000052999724   -0.1400
      4 C4          0.8612    3.9594   51.4918 C.2     1  ZINC000052999724   -0.0400
      5 C5          0.0861    4.2866   50.4151 C.2     1  ZINC000052999724   -0.2600
      6 C6          0.5731    4.4924   49.0479 C.2     1  ZINC000052999724    0.6000
      7 O7          1.0986    5.5465   48.7414 O.2     1  ZINC000052999724   -0.5200
      8 N8          0.4390    3.5144   48.1303 N.am    1  ZINC000052999724   -0.6000
      9 C9         -0.1986    2.2388   48.4836 C.3     1  ZINC000052999724    0.1100
     10 C10        -1.3298    1.9607   47.4888 C.3     1  ZINC000052999724   -0.1400
     11 C11        -0.7745    2.0123   46.0636 C.3     1  ZINC000052999724    0.1500
     12 N12        -1.8467    1.7142   45.1109 N.am    1  ZINC000052999724   -1.1100
     13 S13        -1.8052    0.3128   44.2295 S.o2    1  ZINC000052999724    2.7200
     14 O14        -1.6583   -0.7459   45.1658 O.2     1  ZINC000052999724   -0.9500
     15 O15        -2.8813    0.3886   43.3044 O.2     1  ZINC000052999724   -0.9400
     16 C16        -0.3249    0.3412   43.2742 C.2     1  ZINC000052999724   -0.8000
     17 C17        -0.1779   -0.2077   42.0674 C.2     1  ZINC000052999724    0.0100
     18 C18         1.0793   -0.0581   41.5079 C.2     1  ZINC000052999724   -0.1600
     19 C19         1.9532    0.6122   42.2602 C.2     1  ZINC000052999724   -0.1700
     20 S20         1.1826    1.1042   43.7628 S.3     1  ZINC000052999724    0.2100
     21 C21        -0.2161    3.4091   45.7821 C.3     1  ZINC000052999724   -0.1500
     22 C22         0.9222    3.7059   46.7561 C.3     1  ZINC000052999724    0.1100
     23 S23        -1.5892    4.4204   50.9321 S.3     1  ZINC000052999724    0.2100
     24 C24        -1.1720    4.0368   52.5414 C.2     1  ZINC000052999724   -0.2400
     25 C25         0.1436    3.8207   52.6561 C.2     1  ZINC000052999724   -0.1300
     26 H26         2.7834    5.3175   52.8390 H       1  ZINC000052999724    0.0600
     27 H27         2.6097    3.6940   53.5476 H       1  ZINC000052999724    0.0600
     28 H28         4.0834    4.1175   52.6437 H       1  ZINC000052999724    0.0600
     29 H29         2.7478    4.3288   50.5652 H       1  ZINC000052999724    0.0800
     30 H30         2.2687    1.7131   52.0637 H       1  ZINC000052999724    0.0600
     31 H31         2.1994    1.9254   50.2978 H       1  ZINC000052999724    0.0600
     32 H32         3.7424    2.1366   51.1598 H       1  ZINC000052999724    0.0600
     33 H33         0.5373    1.4363   48.4339 H       1  ZINC000052999724    0.0800
     34 H34        -0.6065    2.3012   49.4926 H       1  ZINC000052999724    0.0900
     35 H35        -1.7484    0.9727   47.6805 H       1  ZINC000052999724    0.0900
     36 H36        -2.1085    2.7147   47.6033 H       1  ZINC000052999724    0.0800
     37 H37         0.0213    1.2752   45.9571 H       1  ZINC000052999724    0.0900
     38 H38        -2.5810    2.3376   44.9964 H       1  ZINC000052999724    0.4200
     39 H39        -0.9790   -0.7295   41.5651 H       1  ZINC000052999724    0.1600
     40 H40         1.3334   -0.4545   40.5359 H       1  ZINC000052999724    0.1500
     41 H41         2.9765    0.8238   41.9869 H       1  ZINC000052999724    0.1800
     42 H42         0.1580    3.4521   44.7593 H       1  ZINC000052999724    0.1000
     43 H43        -1.0054    4.1496   45.9127 H       1  ZINC000052999724    0.0800
     44 H44         1.2564    4.7351   46.6249 H       1  ZINC000052999724    0.1000
     45 H45         1.7512    3.0236   46.5680 H       1  ZINC000052999724    0.0800
     46 H46        -1.8763    3.9729   53.3576 H       1  ZINC000052999724    0.1700
     47 H47         0.6088    3.5641   53.5965 H       1  ZINC000052999724    0.1400
@<TRIPOS>BOND
     1     1     2    1
     2     1    26    1
     3     1    27    1
     4     1    28    1
     5     2     3    1
     6     2     4    1
     7     2    29    1
     8     3    30    1
     9     3    31    1
    10     3    32    1
    11     4    25    1
    12     4     5    2
    13     5     6    1
    14     5    23    1
    15     6     7    2
    16     6     8   am
    17     8    22    1
    18     8     9    1
    19     9    10    1
    20     9    33    1
    21     9    34    1
    22    10    11    1
    23    10    35    1
    24    10    36    1
    25    11    12    1
    26    11    21    1
    27    11    37    1
    28    12    13   am
    29    12    38    1
    30    13    14    2
    31    13    15    2
    32    13    16    1
    33    16    20    1
    34    16    17    2
    35    17    18    1
    36    17    39    1
    37    18    19    2
    38    18    40    1
    39    19    20    1
    40    19    41    1
    41    21    22    1
    42    21    42    1
    43    21    43    1
    44    22    44    1
    45    22    45    1
    46    23    24    1
    47    24    25    2
    48    24    46    1
    49    25    47    1
@<TRIPOS>SUBSTRUCTURE
     1 ZINC000052999724        1 TEMP              0 ****  ****    0 ROOT


##########                                Name:    ZINC000618094467
##########                DOCK_Rotatable_Bonds:                   5
##########                         Heavy_Atoms:                  27
##########                    Molecular_Weight:             370.492
##########                DOCK_Rotatable_Bonds:                   5
##########                       Formal_Charge:                0.03
##########                     HBond_Acceptors:                   5
##########                        HBond_Donors:                   0
##########                         Heavy_Atoms:                  27
##########                          Grid_Score:          -29.413652
##########                     Grid_vdw_energy:          -28.568539
##########                      Grid_es_energy:           -0.845114
##########           Internal_energy_repulsive:           77.426735

@<TRIPOS>MOLECULE
ZINC000618094467
 57 59 1 0 0
SMALL
USER_CHARGES


@<TRIPOS>ATOM
      1 C1         -8.7033    1.5108   60.6320 C.3     1  ZINC000618094467   -0.1500
      2 C2         -9.6574    0.7927   59.6754 C.3     1  ZINC000618094467   -0.1000
      3 C3         -8.9819   -0.4679   59.1320 C.3     1  ZINC000618094467   -0.1100
      4 H4         -8.0135   -0.2060   58.7055 H       1  ZINC000618094467    0.1000
      5 C5         -8.7832   -1.4711   60.2701 C.3     1  ZINC000618094467   -0.1500
      6 C6         -9.8506   -1.0835   58.0657 C.2     1  ZINC000618094467    0.5200
      7 O7        -10.4546   -2.1102   58.2936 O.2     1  ZINC000618094467   -0.5000
      8 N8         -9.9567   -0.4932   56.8587 N.am    1  ZINC000618094467   -0.6100
      9 C9         -9.2394    0.7490   56.5517 C.3     1  ZINC000618094467    0.1400
     10 C10        -8.6113    0.6480   55.1844 C.ar    1  ZINC000618094467   -0.1000
     11 C11        -7.6933    1.6231   54.8199 C.ar    1  ZINC000618094467   -0.1100
     12 C12        -7.0925    1.5903   53.5780 C.ar    1  ZINC000618094467   -0.1200
     13 C13        -7.4088    0.5791   52.6902 C.ar    1  ZINC000618094467   -0.1100
     14 C14        -8.3180   -0.3928   53.0530 C.ar    1  ZINC000618094467   -0.1200
     15 C15        -8.9199   -0.3658   54.3049 C.ar    1  ZINC000618094467   -0.0600
     16 C16        -9.8815   -1.4749   54.6415 C.3     1  ZINC000618094467   -0.0800
     17 C17       -10.7919   -1.0724   55.7938 C.3     1  ZINC000618094467    0.1200
     18 H18       -11.5129   -0.3297   55.4520 H       1  ZINC000618094467    0.1000
     19 C19       -11.5183   -2.2848   56.3168 C.2     1  ZINC000618094467    0.5500
     20 O20       -11.0433   -3.3900   56.1621 O.2     1  ZINC000618094467   -0.5200
     21 N21       -12.6958   -2.1409   56.9565 N.am    1  ZINC000618094467   -0.6100
     22 C22       -13.2817   -0.8073   57.1432 C.3     1  ZINC000618094467    0.1200
     23 C23       -14.6780   -0.7881   56.5084 C.3     1  ZINC000618094467   -0.1600
     24 H24       -15.2017    0.1220   56.8012 H       1  ZINC000618094467    0.1100
     25 C25       -14.5518   -0.8421   54.9846 C.3     1  ZINC000618094467   -0.1400
     26 C26       -15.4434   -1.9969   57.0001 C.2     1  ZINC000618094467    0.3700
     27 O27       -16.5356   -1.8757   57.5008 O.2     1  ZINC000618094467   -0.4400
     28 C28       -14.8075   -3.3614   56.8488 C.3     1  ZINC000618094467   -0.1600
     29 H29       -14.7284   -3.6142   55.7915 H       1  ZINC000618094467    0.1100
     30 C30       -15.6601   -4.4095   57.5666 C.3     1  ZINC000618094467   -0.1400
     31 C31       -13.4109   -3.3166   57.4697 C.3     1  ZINC000618094467    0.1400
     32 H32        -7.7938    1.7871   60.0984 H       1  ZINC000618094467    0.0500
     33 H33        -9.1847    2.4088   61.0191 H       1  ZINC000618094467    0.0600
     34 H34        -8.4516    0.8477   61.4598 H       1  ZINC000618094467    0.0600
     35 H35       -10.5669    0.5163   60.2090 H       1  ZINC000618094467    0.0700
     36 H36        -9.9091    1.4557   58.8477 H       1  ZINC000618094467    0.0700
     37 H37        -9.7307   -1.6280   60.7855 H       1  ZINC000618094467    0.0700
     38 H38        -8.4304   -2.4182   59.8620 H       1  ZINC000618094467    0.0700
     39 H39        -8.0471   -1.0817   60.9733 H       1  ZINC000618094467    0.0700
     40 H40        -9.9384    1.5852   56.5688 H       1  ZINC000618094467    0.0900
     41 H41        -8.4612    0.9123   57.2972 H       1  ZINC000618094467    0.1100
     42 H42        -7.4476    2.4139   55.5133 H       1  ZINC000618094467    0.1300
     43 H43        -6.3784    2.3515   53.3006 H       1  ZINC000618094467    0.1300
     44 H44        -6.9454    0.5502   51.7151 H       1  ZINC000618094467    0.1200
     45 H45        -8.5645   -1.1816   52.3576 H       1  ZINC000618094467    0.1200
     46 H46       -10.4888   -1.7011   53.7651 H       1  ZINC000618094467    0.0900
     47 H47        -9.3182   -2.3638   54.9256 H       1  ZINC000618094467    0.1000
     48 H48       -13.3613   -0.5889   58.2081 H       1  ZINC000618094467    0.0700
     49 H49       -12.6508   -0.0603   56.6612 H       1  ZINC000618094467    0.0900
     50 H50       -14.1137   -1.7956   54.6898 H       1  ZINC000618094467    0.0600
     51 H51       -15.5395   -0.7414   54.5345 H       1  ZINC000618094467    0.0600
     52 H52       -13.9126   -0.0276   54.6438 H       1  ZINC000618094467    0.0700
     53 H53       -16.6590   -4.4259   57.1306 H       1  ZINC000618094467    0.0700
     54 H54       -15.1991   -5.3910   57.4555 H       1  ZINC000618094467    0.0700
     55 H55       -15.7297   -4.1585   58.6250 H       1  ZINC000618094467    0.0600
     56 H56       -12.8644   -4.2219   57.2053 H       1  ZINC000618094467    0.1100
     57 H57       -13.4952   -3.2415   58.5538 H       1  ZINC000618094467    0.0700
@<TRIPOS>BOND
     1     1     2    1
     2     1    32    1
     3     1    33    1
     4     1    34    1
     5     2     3    1
     6     2    35    1
     7     2    36    1
     8     3     4    1
     9     3     5    1
    10     3     6    1
    11     5    37    1
    12     5    38    1
    13     5    39    1
    14     6     7    2
    15     6     8   am
    16     8    17    1
    17     8     9    1
    18     9    10    1
    19     9    40    1
    20     9    41    1
    21    10    15   ar
    22    10    11   ar
    23    11    12   ar
    24    11    42    1
    25    12    13   ar
    26    12    43    1
    27    13    14   ar
    28    13    44    1
    29    14    15   ar
    30    14    45    1
    31    15    16    1
    32    16    17    1
    33    16    46    1
    34    16    47    1
    35    17    18    1
    36    17    19    1
    37    19    20    2
    38    19    21   am
    39    21    31    1
    40    21    22    1
    41    22    23    1
    42    22    48    1
    43    22    49    1
    44    23    24    1
    45    23    25    1
    46    23    26    1
    47    25    50    1
    48    25    51    1
    49    25    52    1
    50    26    27    2
    51    26    28    1
    52    28    29    1
    53    28    30    1
    54    28    31    1
    55    30    53    1
    56    30    54    1
    57    30    55    1
    58    31    56    1
    59    31    57    1
@<TRIPOS>SUBSTRUCTURE
     1 ZINC000618094467        1 TEMP              0 ****  ****    0 ROOT


##########                                Name:    ZINC000331626032
##########                DOCK_Rotatable_Bonds:                   5
##########                         Heavy_Atoms:                  25
##########                    Molecular_Weight:              339.44
##########                DOCK_Rotatable_Bonds:                   5
##########                       Formal_Charge:        -2.16067e-07
##########                     HBond_Acceptors:                   6
##########                        HBond_Donors:                   2
##########                         Heavy_Atoms:                  25
##########                          Grid_Score:          -29.374542
##########                     Grid_vdw_energy:          -27.746151
##########                      Grid_es_energy:           -1.628391
##########           Internal_energy_repulsive:          185.890671

@<TRIPOS>MOLECULE
ZINC000331626032
 50 52 1 0 0
SMALL
USER_CHARGES


@<TRIPOS>ATOM
      1 C1          2.6507    1.9550   47.2654 C.3     1  ZINC000331626032   -0.2000
      2 C2          1.3941    2.0682   46.3999 C.3     1  ZINC000331626032    0.0700
      3 H3          1.0678    3.1077   46.3674 H       1  ZINC000331626032    0.1100
      4 C4          1.7021    1.5945   45.0028 C.2     1  ZINC000331626032    0.5200
      5 O5          1.3284    0.4999   44.6376 O.2     1  ZINC000331626032   -0.5000
      6 N6          2.3925    2.3871   44.1594 N.am    1  ZINC000331626032   -0.5800
      7 C7          2.8438    3.7090   44.6007 C.3     1  ZINC000331626032    0.0800
      8 C8          2.6784    1.9471   42.8622 C.ar    1  ZINC000331626032    0.1400
      9 C9          2.2472    0.6960   42.4409 C.ar    1  ZINC000331626032   -0.1000
     10 C10         2.5310    0.2647   41.1599 C.ar    1  ZINC000331626032   -0.1100
     11 C11         3.2440    1.0769   40.2974 C.ar    1  ZINC000331626032   -0.1200
     12 C12         3.6751    2.3230   40.7140 C.ar    1  ZINC000331626032   -0.1100
     13 C13         3.3888    2.7629   41.9915 C.ar    1  ZINC000331626032   -0.1200
     14 N14         0.3272    1.2378   46.9746 N.3     1  ZINC000331626032   -0.5100
     15 C15         0.8864    0.0861   47.6938 C.3     1  ZINC000331626032    0.0500
     16 C16        -0.2494   -0.8311   48.1524 C.3     1  ZINC000331626032   -0.1100
     17 C17        -1.1959   -0.0464   49.0651 C.3     1  ZINC000331626032   -0.1100
     18 C18        -1.7265    1.1743   48.3081 C.3     1  ZINC000331626032   -0.0400
     19 H19        -2.2991    0.8443   47.4413 H       1  ZINC000331626032    0.1000
     20 C20        -2.6135    1.9842   49.2183 C.ar    1  ZINC000331626032    0.2300
     21 C21        -2.0613    2.7789   50.2103 C.ar    1  ZINC000331626032   -0.2900
     22 C22        -2.9127    3.5079   51.0260 C.ar    1  ZINC000331626032    0.1900
     23 N23        -4.2187    3.4239   50.8345 N.ar    1  ZINC000331626032   -0.5700
     24 C24        -4.7145    2.6544   49.8764 C.ar    1  ZINC000331626032    0.5700
     25 N25        -6.0863    2.5903   49.7035 N.pl3   1  ZINC000331626032   -0.8200
     26 N26        -3.9283    1.9494   49.0765 N.ar    1  ZINC000331626032   -0.5700
     27 C27        -0.5479    2.0334   47.8450 C.3     1  ZINC000331626032    0.0700
     28 H28         2.9770    0.9155   47.2979 H       1  ZINC000331626032    0.0700
     29 H29         3.4423    2.5711   46.8390 H       1  ZINC000331626032    0.0800
     30 H30         2.4280    2.2976   48.2760 H       1  ZINC000331626032    0.0700
     31 H31         3.8362    3.6251   45.0438 H       1  ZINC000331626032    0.0600
     32 H32         2.8838    4.3836   43.7453 H       1  ZINC000331626032    0.0800
     33 H33         2.1474    4.1022   45.3413 H       1  ZINC000331626032    0.0800
     34 H34         1.6909    0.0609   43.1144 H       1  ZINC000331626032    0.1200
     35 H35         2.1960   -0.7082   40.8318 H       1  ZINC000331626032    0.1300
     36 H36         3.4649    0.7372   39.2962 H       1  ZINC000331626032    0.1300
     37 H37         4.2325    2.9548   40.0381 H       1  ZINC000331626032    0.1300
     38 H38         3.7259    3.7362   42.3163 H       1  ZINC000331626032    0.1200
     39 H39         1.5543   -0.4658   47.0324 H       1  ZINC000331626032    0.0900
     40 H40         1.4438    0.4362   48.5627 H       1  ZINC000331626032    0.0300
     41 H41        -0.7987   -1.1927   47.2831 H       1  ZINC000331626032    0.0800
     42 H42         0.1649   -1.6779   48.6997 H       1  ZINC000331626032    0.0700
     43 H43        -2.0298   -0.6835   49.3592 H       1  ZINC000331626032    0.0700
     44 H44        -0.6562    0.2822   49.9533 H       1  ZINC000331626032    0.0700
     45 H45        -0.9909    2.8289   50.3453 H       1  ZINC000331626032    0.1400
     46 H46        -2.5145    4.1366   51.8087 H       1  ZINC000331626032    0.1700
     47 H47        -6.6724    3.1051   50.2800 H       1  ZINC000331626032    0.4100
     48 H48        -6.4615    2.0306   49.0058 H       1  ZINC000331626032    0.4100
     49 H49         0.0162    2.3744   48.7132 H       1  ZINC000331626032    0.0400
     50 H50        -0.9217    2.8960   47.2933 H       1  ZINC000331626032    0.0800
@<TRIPOS>BOND
     1     1     2    1
     2     1    28    1
     3     1    29    1
     4     1    30    1
     5     2     3    1
     6     2     4    1
     7     2    14    1
     8     4     5    2
     9     4     6   am
    10     6     7    1
    11     6     8    1
    12     7    31    1
    13     7    32    1
    14     7    33    1
    15     8    13   ar
    16     8     9   ar
    17     9    10   ar
    18     9    34    1
    19    10    11   ar
    20    10    35    1
    21    11    12   ar
    22    11    36    1
    23    12    13   ar
    24    12    37    1
    25    13    38    1
    26    14    27    1
    27    14    15    1
    28    15    16    1
    29    15    39    1
    30    15    40    1
    31    16    17    1
    32    16    41    1
    33    16    42    1
    34    17    18    1
    35    17    43    1
    36    17    44    1
    37    18    19    1
    38    18    20    1
    39    18    27    1
    40    20    26   ar
    41    20    21   ar
    42    21    22   ar
    43    21    45    1
    44    22    23   ar
    45    22    46    1
    46    23    24   ar
    47    24    25    1
    48    24    26   ar
    49    25    47    1
    50    25    48    1
    51    27    49    1
    52    27    50    1
@<TRIPOS>SUBSTRUCTURE
     1 ZINC000331626032        1 TEMP              0 ****  ****    0 ROOT


##########                                Name:    ZINC000971513996
##########                DOCK_Rotatable_Bonds:                   6
##########                         Heavy_Atoms:                  27
##########                    Molecular_Weight:             369.464
##########                DOCK_Rotatable_Bonds:                   6
##########                       Formal_Charge:          -0.0300002
##########                     HBond_Acceptors:                   6
##########                        HBond_Donors:                   1
##########                         Heavy_Atoms:                  27
##########                          Grid_Score:          -29.341198
##########                     Grid_vdw_energy:          -28.412304
##########                      Grid_es_energy:           -0.928895
##########           Internal_energy_repulsive:           16.074558

@<TRIPOS>MOLECULE
ZINC000971513996
 54 57 1 0 0
SMALL
USER_CHARGES


@<TRIPOS>ATOM
      1 C1        -11.7482   -2.9479   57.9011 C.3     1  ZINC000971513996   -0.1600
      2 C2        -11.5856   -1.4539   58.1886 C.3     1  ZINC000971513996   -0.1400
      3 C3        -10.3785   -0.9147   57.4186 C.3     1  ZINC000971513996    0.0800
      4 H4        -10.2665    0.1509   57.6184 H       1  ZINC000971513996    0.0800
      5 O5         -9.1992   -1.6045   57.8377 O.3     1  ZINC000971513996   -0.3600
      6 C6         -8.6554   -1.1294   59.0709 C.3     1  ZINC000971513996    0.0200
      7 C7        -10.5879   -1.1295   55.9418 C.2     1  ZINC000971513996    0.5400
      8 O8        -10.0159   -2.0355   55.3736 O.2     1  ZINC000971513996   -0.5100
      9 N9        -11.4110   -0.3149   55.2523 N.am    1  ZINC000971513996   -0.6400
     10 C10       -12.2585    0.8517   55.5527 C.3     1  ZINC000971513996    0.1000
     11 C11       -12.0341    1.3080   54.0982 C.3     1  ZINC000971513996   -0.1200
     12 H12       -12.9038    1.7529   53.6147 H       1  ZINC000971513996    0.1100
     13 C13       -10.7579    2.1428   53.9656 C.3     1  ZINC000971513996   -0.1200
     14 C14       -10.0690    1.8033   52.6406 C.3     1  ZINC000971513996    0.1100
     15 N15        -9.7756    0.3677   52.6305 N.am    1  ZINC000971513996   -0.6000
     16 C16        -8.5092   -0.0545   52.4445 C.2     1  ZINC000971513996    0.5900
     17 O17        -8.2602   -1.2452   52.4352 O.2     1  ZINC000971513996   -0.5200
     18 C18        -7.4284    0.9242   52.2528 C.2     1  ZINC000971513996    0.0200
     19 C19        -6.7224    1.5227   53.2473 C.2     1  ZINC000971513996   -0.1000
     20 C20        -5.7801    2.3911   52.6448 C.ar    1  ZINC000971513996   -0.1100
     21 C21        -4.8011    3.2523   53.1562 C.ar    1  ZINC000971513996   -0.0600
     22 C22        -4.0248    3.9808   52.3024 C.ar    1  ZINC000971513996   -0.1200
     23 C23        -2.9723    4.9065   52.8560 C.3     1  ZINC000971513996   -0.1100
     24 C24        -4.1951    3.8765   50.9278 C.ar    1  ZINC000971513996   -0.0800
     25 C25        -5.1507    3.0368   50.4006 C.ar    1  ZINC000971513996   -0.1300
     26 C26        -5.9553    2.2838   51.2509 C.ar    1  ZINC000971513996    0.1100
     27 N27        -6.9651    1.3767   51.0325 N.pl3   1  ZINC000971513996   -0.5800
     28 C28       -10.8418   -0.6069   52.8203 C.3     1  ZINC000971513996    0.0700
     29 C29       -11.8618   -0.1856   53.8648 C.3     1  ZINC000971513996    0.1300
     30 H30       -12.8173   -0.6860   53.7081 H       1  ZINC000971513996    0.1100
     31 H31       -12.5418   -3.3543   58.5281 H       1  ZINC000971513996    0.0600
     32 H32       -12.0056   -3.0900   56.8515 H       1  ZINC000971513996    0.0600
     33 H33       -10.8129   -3.4637   58.1189 H       1  ZINC000971513996    0.0600
     34 H34       -12.4842   -0.9235   57.8734 H       1  ZINC000971513996    0.0800
     35 H35       -11.4313   -1.3042   59.2572 H       1  ZINC000971513996    0.0800
     36 H36        -8.3033   -0.1059   58.9423 H       1  ZINC000971513996    0.0400
     37 H37        -9.4258   -1.1545   59.8414 H       1  ZINC000971513996    0.0500
     38 H38        -7.8220   -1.7655   59.3693 H       1  ZINC000971513996    0.0900
     39 H39       -13.2942    0.5922   55.7724 H       1  ZINC000971513996    0.0900
     40 H40       -11.8254    1.5256   56.2918 H       1  ZINC000971513996    0.0800
     41 H41       -11.0126    3.2025   53.9825 H       1  ZINC000971513996    0.0900
     42 H42       -10.0865    1.9155   54.7937 H       1  ZINC000971513996    0.0700
     43 H43       -10.7297    2.0493   51.8092 H       1  ZINC000971513996    0.0800
     44 H44        -9.1413    2.3689   52.5532 H       1  ZINC000971513996    0.1000
     45 H45        -6.8559    1.3646   54.3073 H       1  ZINC000971513996    0.1500
     46 H46        -4.6613    3.3401   54.2235 H       1  ZINC000971513996    0.1200
     47 H47        -2.0319    4.3656   52.9620 H       1  ZINC000971513996    0.0700
     48 H48        -2.8334    5.7469   52.1758 H       1  ZINC000971513996    0.0600
     49 H49        -3.2903    5.2767   53.8306 H       1  ZINC000971513996    0.0600
     50 H50        -3.5722    4.4600   50.2660 H       1  ZINC000971513996    0.1300
     51 H51        -5.2759    2.9629   49.3304 H       1  ZINC000971513996    0.1200
     52 H52        -7.2982    1.1007   50.1643 H       1  ZINC000971513996    0.4200
     53 H53       -11.3633   -0.7456   51.8732 H       1  ZINC000971513996    0.0800
     54 H54       -10.3995   -1.5578   53.1174 H       1  ZINC000971513996    0.1200
@<TRIPOS>BOND
     1     1     2    1
     2     1    31    1
     3     1    32    1
     4     1    33    1
     5     2     3    1
     6     2    34    1
     7     2    35    1
     8     3     4    1
     9     3     5    1
    10     3     7    1
    11     5     6    1
    12     6    36    1
    13     6    37    1
    14     6    38    1
    15     7     8    2
    16     7     9   am
    17     9    29    1
    18     9    10    1
    19    10    11    1
    20    10    39    1
    21    10    40    1
    22    11    12    1
    23    11    29    1
    24    11    13    1
    25    13    14    1
    26    13    41    1
    27    13    42    1
    28    14    15    1
    29    14    43    1
    30    14    44    1
    31    15    16   am
    32    15    28    1
    33    16    17    2
    34    16    18    1
    35    18    27    1
    36    18    19    2
    37    19    20    1
    38    19    45    1
    39    20    26   ar
    40    20    21   ar
    41    21    22   ar
    42    21    46    1
    43    22    23    1
    44    22    24   ar
    45    23    47    1
    46    23    48    1
    47    23    49    1
    48    24    25   ar
    49    24    50    1
    50    25    26   ar
    51    25    51    1
    52    26    27    1
    53    27    52    1
    54    28    29    1
    55    28    53    1
    56    28    54    1
    57    29    30    1
@<TRIPOS>SUBSTRUCTURE
     1 ZINC000971513996        1 TEMP              0 ****  ****    0 ROOT


##########                                Name:    ZINC000504860563
##########                DOCK_Rotatable_Bonds:                   6
##########                         Heavy_Atoms:                  25
##########                    Molecular_Weight:             370.786
##########                DOCK_Rotatable_Bonds:                   6
##########                       Formal_Charge:                0.01
##########                     HBond_Acceptors:                   9
##########                        HBond_Donors:                   0
##########                         Heavy_Atoms:                  25
##########                          Grid_Score:          -29.307159
##########                     Grid_vdw_energy:          -29.168638
##########                      Grid_es_energy:           -0.138521
##########           Internal_energy_repulsive:           10.795531

@<TRIPOS>MOLECULE
ZINC000504860563
 42 44 1 0 0
SMALL
USER_CHARGES


@<TRIPOS>ATOM
      1 O1         -6.0344    4.8608   50.3344 O.2     1  ZINC000504860563   -0.5100
      2 C2         -5.7518    3.6836   50.4434 C.2     1  ZINC000504860563    0.5700
      3 C3         -4.3881    3.2172   50.1142 C.ar    1  ZINC000504860563    0.0500
      4 N4         -4.1975    2.4217   49.0677 N.ar    1  ZINC000504860563   -0.4100
      5 C5         -3.0019    1.9854   48.7409 C.ar    1  ZINC000504860563    0.0600
      6 C6         -1.8833    2.3404   49.4805 C.ar    1  ZINC000504860563   -0.1000
      7 C7         -2.0294    3.1672   50.5801 C.ar    1  ZINC000504860563   -0.1700
      8 C8         -3.3059    3.6213   50.9037 C.ar    1  ZINC000504860563    0.1400
      9 O9         -3.4981    4.4341   51.9726 O.3     1  ZINC000504860563   -0.2600
     10 C10        -3.4572    3.8264   53.2653 C.3     1  ZINC000504860563   -0.0100
     11 C11        -3.6255    4.9021   54.3402 C.3     1  ZINC000504860563    0.2800
     12 F12        -4.9702    5.2813   54.4140 F       1  ZINC000504860563   -0.1900
     13 F13        -3.2159    4.3933   55.5774 F       1  ZINC000504860563   -0.1900
     14 N14        -6.6802    2.8043   50.8696 N.am    1  ZINC000504860563   -0.6000
     15 C15        -6.3503    1.3803   51.0178 C.3     1  ZINC000504860563    0.0800
     16 C16        -6.7163    0.9346   52.4370 C.3     1  ZINC000504860563   -0.1500
     17 C17        -8.1839    1.2715   52.7107 C.3     1  ZINC000504860563    0.1600
     18 N18        -8.5466    0.8168   54.0552 N.pl3   1  ZINC000504860563   -0.3600
     19 C19        -9.1918   -0.3299   54.3590 C.2     1  ZINC000504860563    0.0700
     20 C20        -9.3347   -0.3788   55.7042 C.2     1  ZINC000504860563   -0.1900
     21 Cl21      -10.0988   -1.6509   56.6050 Cl      1  ZINC000504860563   -0.0400
     22 C22        -8.7569    0.7775   56.2405 C.2     1  ZINC000504860563    0.0600
     23 N23        -8.2799    1.4918   55.2534 N.2     1  ZINC000504860563   -0.2800
     24 C24        -8.3885    2.7850   52.6118 C.3     1  ZINC000504860563   -0.1400
     25 C25        -8.0397    3.2527   51.2005 C.3     1  ZINC000504860563    0.1200
     26 H26        -2.8883    1.3397   47.8827 H       1  ZINC000504860563    0.1700
     27 H27        -0.9066    1.9741   49.2006 H       1  ZINC000504860563    0.1500
     28 H28        -1.1732    3.4571   51.1712 H       1  ZINC000504860563    0.1500
     29 H29        -4.2642    3.0986   53.3503 H       1  ZINC000504860563    0.1000
     30 H30        -2.4993    3.3242   53.4007 H       1  ZINC000504860563    0.1000
     31 H31        -3.0169    5.7695   54.0846 H       1  ZINC000504860563    0.1300
     32 H32        -6.9181    0.7964   50.2935 H       1  ZINC000504860563    0.0700
     33 H33        -5.2830    1.2334   50.8526 H       1  ZINC000504860563    0.1600
     34 H34        -6.5665   -0.1411   52.5305 H       1  ZINC000504860563    0.0900
     35 H35        -6.0835    1.4544   53.1563 H       1  ZINC000504860563    0.0700
     36 H36        -8.8145    0.7713   51.9757 H       1  ZINC000504860563    0.1100
     37 H37        -9.5333   -1.0743   53.6548 H       1  ZINC000504860563    0.1800
     38 H38        -8.7097    1.0342   57.2885 H       1  ZINC000504860563    0.1900
     39 H39        -9.4288    3.0264   52.8298 H       1  ZINC000504860563    0.0900
     40 H40        -7.7399    3.2874   53.3294 H       1  ZINC000504860563    0.0800
     41 H41        -8.0887    4.3405   51.1535 H       1  ZINC000504860563    0.1000
     42 H42        -8.7437    2.8221   50.4883 H       1  ZINC000504860563    0.0800
@<TRIPOS>BOND
     1     1     2    2
     2     2     3    1
     3     2    14   am
     4     3     8   ar
     5     3     4   ar
     6     4     5   ar
     7     5     6   ar
     8     5    26    1
     9     6     7   ar
    10     6    27    1
    11     7     8   ar
    12     7    28    1
    13     8     9    1
    14     9    10    1
    15    10    11    1
    16    10    29    1
    17    10    30    1
    18    11    12    1
    19    11    13    1
    20    11    31    1
    21    14    25    1
    22    14    15    1
    23    15    16    1
    24    15    32    1
    25    15    33    1
    26    16    17    1
    27    16    34    1
    28    16    35    1
    29    17    18    1
    30    17    24    1
    31    17    36    1
    32    18    23    1
    33    18    19    1
    34    19    20    2
    35    19    37    1
    36    20    21    1
    37    20    22    1
    38    22    23    2
    39    22    38    1
    40    24    25    1
    41    24    39    1
    42    24    40    1
    43    25    41    1
    44    25    42    1
@<TRIPOS>SUBSTRUCTURE
     1 ZINC000504860563        1 TEMP              0 ****  ****    0 ROOT


##########                                Name:    ZINC000443933644
##########                DOCK_Rotatable_Bonds:                   8
##########                         Heavy_Atoms:                  27
##########                    Molecular_Weight:             402.438
##########                DOCK_Rotatable_Bonds:                   8
##########                       Formal_Charge:          0.00999922
##########                     HBond_Acceptors:                   9
##########                        HBond_Donors:                   2
##########                         Heavy_Atoms:                  27
##########                          Grid_Score:          -29.306772
##########                     Grid_vdw_energy:          -29.503923
##########                      Grid_es_energy:            0.197150
##########           Internal_energy_repulsive:           40.912487

@<TRIPOS>MOLECULE
ZINC000443933644
 48 49 1 0 0
SMALL
USER_CHARGES


@<TRIPOS>ATOM
      1 C1         -0.4359    0.5118   44.1710 C.3     1  ZINC000443933644   -0.1500
      2 C2         -0.0552    0.8188   45.6207 C.3     1  ZINC000443933644   -0.1400
      3 C3         -1.2875    0.6670   46.5147 C.3     1  ZINC000443933644   -0.1000
      4 H4         -1.6446   -0.3619   46.4696 H       1  ZINC000443933644    0.1000
      5 C5         -2.3893    1.6109   46.0289 C.3     1  ZINC000443933644   -0.1700
      6 C6         -0.9169    1.0155   47.9576 C.3     1  ZINC000443933644    0.1200
      7 H7         -1.7999    0.9287   48.5907 H       1  ZINC000443933644    0.1300
      8 N8         -0.4091    2.3886   48.0133 N.am    1  ZINC000443933644   -1.1100
      9 S9         -0.2284    3.1459   49.4748 S.o2    1  ZINC000443933644    2.6900
     10 O10         0.5675    2.2845   50.2774 O.2     1  ZINC000443933644   -0.9400
     11 O11         0.1288    4.4911   49.1883 O.2     1  ZINC000443933644   -0.9400
     12 C12        -1.8181    3.2038   50.2325 C.ar    1  ZINC000443933644   -0.7000
     13 C13        -1.9391    3.5601   51.5862 C.ar    1  ZINC000443933644    0.0500
     14 C14        -0.8088    3.8759   52.3600 C.ar    1  ZINC000443933644   -0.1400
     15 C15        -0.9621    4.2173   53.6685 C.ar    1  ZINC000443933644   -0.0800
     16 C16        -2.2253    4.2590   54.2555 C.ar    1  ZINC000443933644   -0.1200
     17 C17        -3.3421    3.9590   53.5366 C.ar    1  ZINC000443933644   -0.0900
     18 C18        -3.2229    3.6029   52.1840 C.ar    1  ZINC000443933644   -0.0900
     19 C19        -4.3576    3.2857   51.4076 C.ar    1  ZINC000443933644    0.2300
     20 N20        -5.6322    3.3209   51.9761 N.am    1  ZINC000443933644   -0.6700
     21 C21        -6.4787    4.3244   51.6711 C.2     1  ZINC000443933644    0.5100
     22 C22        -7.8546    4.3624   52.2848 C.3     1  ZINC000443933644   -0.1700
     23 O23        -6.1330    5.1968   50.9028 O.2     1  ZINC000443933644   -0.5100
     24 C24        -4.1963    2.9411   50.0830 C.ar    1  ZINC000443933644   -0.1600
     25 C25        -2.9307    2.9088   49.5051 C.ar    1  ZINC000443933644    0.0400
     26 C26         0.1631    0.0519   48.4537 C.3     1  ZINC000443933644    0.4300
     27 F27         1.4265    0.5791   48.1656 F       1  ZINC000443933644   -0.1700
     28 F28         0.0342   -0.1214   49.8359 F       1  ZINC000443933644   -0.1600
     29 F29         0.0160   -1.1831   47.8131 F       1  ZINC000443933644   -0.1700
     30 H30        -0.8111   -0.5092   44.1022 H       1  ZINC000443933644    0.0500
     31 H31        -1.2099    1.2061   43.8438 H       1  ZINC000443933644    0.0600
     32 H32         0.4420    0.6200   43.5340 H       1  ZINC000443933644    0.0600
     33 H33         0.7188    0.1245   45.9479 H       1  ZINC000443933644    0.0700
     34 H34         0.3200    1.8398   45.6894 H       1  ZINC000443933644    0.0900
     35 H35        -2.7352    1.2904   45.0461 H       1  ZINC000443933644    0.0700
     36 H36        -3.2221    1.5896   46.7319 H       1  ZINC000443933644    0.0600
     37 H37        -1.9957    2.6251   45.9626 H       1  ZINC000443933644    0.0700
     38 H38        -0.1788    2.8542   47.1940 H       1  ZINC000443933644    0.4300
     39 H39         0.1765    3.8473   51.9185 H       1  ZINC000443933644    0.1400
     40 H40        -0.0920    4.4590   54.2608 H       1  ZINC000443933644    0.1300
     41 H41        -2.3199    4.5329   55.2958 H       1  ZINC000443933644    0.1300
     42 H42        -4.3146    3.9948   54.0047 H       1  ZINC000443933644    0.1300
     43 H43        -5.9085    2.6232   52.5907 H       1  ZINC000443933644    0.4200
     44 H44        -7.9826    3.5030   52.9429 H       1  ZINC000443933644    0.0800
     45 H45        -7.9706    5.2810   52.8599 H       1  ZINC000443933644    0.1000
     46 H46        -8.6054    4.3306   51.4954 H       1  ZINC000443933644    0.1000
     47 H47        -5.0624    2.6976   49.4855 H       1  ZINC000443933644    0.1500
     48 H48        -2.8285    2.6358   48.4652 H       1  ZINC000443933644    0.1500
@<TRIPOS>BOND
     1     1     2    1
     2     1    30    1
     3     1    31    1
     4     1    32    1
     5     2     3    1
     6     2    33    1
     7     2    34    1
     8     3     4    1
     9     3     5    1
    10     3     6    1
    11     5    35    1
    12     5    36    1
    13     5    37    1
    14     6     7    1
    15     6     8    1
    16     6    26    1
    17     8     9   am
    18     8    38    1
    19     9    10    2
    20     9    11    2
    21     9    12    1
    22    12    25   ar
    23    12    13   ar
    24    13    18   ar
    25    13    14   ar
    26    14    15   ar
    27    14    39    1
    28    15    16   ar
    29    15    40    1
    30    16    17   ar
    31    16    41    1
    32    17    18   ar
    33    17    42    1
    34    18    19   ar
    35    19    20    1
    36    19    24   ar
    37    20    21   am
    38    20    43    1
    39    21    22    1
    40    21    23    2
    41    22    44    1
    42    22    45    1
    43    22    46    1
    44    24    25   ar
    45    24    47    1
    46    25    48    1
    47    26    27    1
    48    26    28    1
    49    26    29    1
@<TRIPOS>SUBSTRUCTURE
     1 ZINC000443933644        1 TEMP              0 ****  ****    0 ROOT


##########                                Name:    ZINC000942890482
##########                DOCK_Rotatable_Bonds:                   8
##########                         Heavy_Atoms:                  25
##########                    Molecular_Weight:             346.445
##########                DOCK_Rotatable_Bonds:                   8
##########                       Formal_Charge:          -0.0100004
##########                     HBond_Acceptors:                   5
##########                        HBond_Donors:                   0
##########                         Heavy_Atoms:                  25
##########                          Grid_Score:          -29.286793
##########                     Grid_vdw_energy:          -28.521164
##########                      Grid_es_energy:           -0.765628
##########           Internal_energy_repulsive:           26.745682

@<TRIPOS>MOLECULE
ZINC000942890482
 52 54 1 0 0
SMALL
USER_CHARGES


@<TRIPOS>ATOM
      1 C1          2.5053    2.5683   50.1023 C.3     1  ZINC000942890482   -0.1700
      2 C2          1.4902    1.4361   50.2716 C.3     1  ZINC000942890482    0.1000
      3 N3          0.6693    1.3315   49.0626 N.am    1  ZINC000942890482   -0.6000
      4 C4          1.0831    0.5691   48.0310 C.2     1  ZINC000942890482    0.5700
      5 O5          2.1375   -0.0316   48.1038 O.2     1  ZINC000942890482   -0.5100
      6 C6          0.2554    0.4636   46.8120 C.ar    1  ZINC000942890482   -0.1400
      7 C7          0.3641    1.4257   45.8059 C.ar    1  ZINC000942890482   -0.0600
      8 C8         -0.4103    1.3220   44.6700 C.ar    1  ZINC000942890482   -0.1600
      9 C9         -1.2958    0.2652   44.5258 C.ar    1  ZINC000942890482    0.1300
     10 F10        -2.0525    0.1684   43.4108 F       1  ZINC000942890482   -0.1300
     11 C11        -1.4075   -0.6932   45.5219 C.ar    1  ZINC000942890482   -0.1600
     12 C12        -0.6345   -0.6020   46.6592 C.ar    1  ZINC000942890482   -0.0100
     13 C13        -0.7567   -1.6443   47.7407 C.3     1  ZINC000942890482   -0.1200
     14 C14        -0.6013    2.0555   48.9751 C.3     1  ZINC000942890482    0.1400
     15 H15        -0.8633    2.2563   47.9363 H       1  ZINC000942890482    0.1100
     16 C16        -0.5510    3.3687   49.7998 C.3     1  ZINC000942890482   -0.1500
     17 C17        -2.0325    3.6075   50.1601 C.3     1  ZINC000942890482    0.1100
     18 N18        -2.7187    2.3105   50.0676 N.am    1  ZINC000942890482   -0.6200
     19 C19        -4.0316    2.0989   50.2872 C.2     1  ZINC000942890482    0.5300
     20 O20        -4.4916    0.9816   50.1828 O.2     1  ZINC000942890482   -0.5400
     21 C21        -4.9280    3.2509   50.6621 C.3     1  ZINC000942890482   -0.1300
     22 C22        -6.3559    2.9582   50.1969 C.3     1  ZINC000942890482   -0.0700
     23 C23        -7.2691    4.1208   50.5912 C.3     1  ZINC000942890482   -0.1600
     24 C24        -8.5549    3.7835   51.3487 C.3     1  ZINC000942890482   -0.1800
     25 C25        -7.3888    4.4515   52.0802 C.3     1  ZINC000942890482   -0.1800
     26 C26        -1.7333    1.2792   49.6931 C.3     1  ZINC000942890482    0.0900
     27 H27         3.1453    2.3575   49.2456 H       1  ZINC000942890482    0.0600
     28 H28         1.9776    3.5080   49.9389 H       1  ZINC000942890482    0.0600
     29 H29         3.1160    2.6462   51.0017 H       1  ZINC000942890482    0.0700
     30 H30         2.0179    0.4965   50.4348 H       1  ZINC000942890482    0.0900
     31 H31         0.8501    1.6470   51.1282 H       1  ZINC000942890482    0.0900
     32 H32         1.0534    2.2496   45.9174 H       1  ZINC000942890482    0.1400
     33 H33        -0.3273    2.0658   43.8913 H       1  ZINC000942890482    0.1400
     34 H34        -2.0989   -1.5146   45.4045 H       1  ZINC000942890482    0.1400
     35 H35        -0.1043   -2.4862   47.5094 H       1  ZINC000942890482    0.0900
     36 H36        -0.4655   -1.2110   48.6975 H       1  ZINC000942890482    0.0700
     37 H37        -1.7892   -1.9896   47.7974 H       1  ZINC000942890482    0.0700
     38 H38         0.0483    3.2357   50.7005 H       1  ZINC000942890482    0.1000
     39 H39        -0.1641    4.1891   49.1954 H       1  ZINC000942890482    0.0900
     40 H40        -2.1092    3.9957   51.1757 H       1  ZINC000942890482    0.0700
     41 H41        -2.4761    4.3124   49.4570 H       1  ZINC000942890482    0.0700
     42 H42        -4.9180    3.3817   51.7441 H       1  ZINC000942890482    0.0900
     43 H43        -4.5691    4.1616   50.1826 H       1  ZINC000942890482    0.0900
     44 H44        -6.3677    2.8383   49.1136 H       1  ZINC000942890482    0.0700
     45 H45        -6.7108    2.0416   50.6679 H       1  ZINC000942890482    0.0700
     46 H46        -7.3029    4.9519   49.8867 H       1  ZINC000942890482    0.1000
     47 H47        -9.4349    4.3927   51.1426 H       1  ZINC000942890482    0.0900
     48 H48        -8.7502    2.7334   51.5662 H       1  ZINC000942890482    0.0900
     49 H49        -6.8170    3.8408   52.7789 H       1  ZINC000942890482    0.0900
     50 H50        -7.5017    5.5001   52.3553 H       1  ZINC000942890482    0.0900
     51 H51        -2.1835    0.5518   49.0177 H       1  ZINC000942890482    0.0800
     52 H52        -1.3465    0.7831   50.5832 H       1  ZINC000942890482    0.0900
@<TRIPOS>BOND
     1     1     2    1
     2     1    27    1
     3     1    28    1
     4     1    29    1
     5     2     3    1
     6     2    30    1
     7     2    31    1
     8     3     4   am
     9     3    14    1
    10     4     5    2
    11     4     6    1
    12     6    12   ar
    13     6     7   ar
    14     7     8   ar
    15     7    32    1
    16     8     9   ar
    17     8    33    1
    18     9    10    1
    19     9    11   ar
    20    11    12   ar
    21    11    34    1
    22    12    13    1
    23    13    35    1
    24    13    36    1
    25    13    37    1
    26    14    15    1
    27    14    26    1
    28    14    16    1
    29    16    17    1
    30    16    38    1
    31    16    39    1
    32    17    18    1
    33    17    40    1
    34    17    41    1
    35    18    19   am
    36    18    26    1
    37    19    20    2
    38    19    21    1
    39    21    22    1
    40    21    42    1
    41    21    43    1
    42    22    23    1
    43    22    44    1
    44    22    45    1
    45    23    25    1
    46    23    24    1
    47    23    46    1
    48    24    25    1
    49    24    47    1
    50    24    48    1
    51    25    49    1
    52    25    50    1
    53    26    51    1
    54    26    52    1
@<TRIPOS>SUBSTRUCTURE
     1 ZINC000942890482        1 TEMP              0 ****  ****    0 ROOT


##########                                Name:    ZINC001345966764
##########                DOCK_Rotatable_Bonds:                  10
##########                         Heavy_Atoms:                  22
##########                    Molecular_Weight:             333.258
##########                DOCK_Rotatable_Bonds:                  10
##########                       Formal_Charge:           0.0099997
##########                     HBond_Acceptors:                  11
##########                        HBond_Donors:                   4
##########                         Heavy_Atoms:                  22
##########                          Grid_Score:          -29.273354
##########                     Grid_vdw_energy:          -27.164728
##########                      Grid_es_energy:           -2.108626
##########           Internal_energy_repulsive:            6.442987

@<TRIPOS>MOLECULE
ZINC001345966764
 38 38 1 0 0
SMALL
USER_CHARGES


@<TRIPOS>ATOM
      1 N1        -10.4957    3.7821   49.4938 N.3     1  ZINC001345966764   -0.8400
      2 C2         -9.0592    4.0898   49.4904 C.3     1  ZINC001345966764    0.0200
      3 C3         -8.6585    4.6689   50.8487 C.3     1  ZINC001345966764    0.2800
      4 F4         -9.3749    5.8475   51.0830 F       1  ZINC001345966764   -0.1900
      5 F5         -8.9466    3.7403   51.8548 F       1  ZINC001345966764   -0.1800
      6 C6         -7.1594    4.9743   50.8507 C.3     1  ZINC001345966764    0.0800
      7 N7         -6.4208    3.7980   50.3848 N.am    1  ZINC001345966764   -0.7000
      8 C8         -5.0730    3.8013   50.3941 C.2     1  ZINC001345966764    0.5100
      9 O9         -4.4713    4.7792   50.7868 O.2     1  ZINC001345966764   -0.5100
     10 C10        -4.3195    2.6006   49.9205 C.2     1  ZINC001345966764    0.5100
     11 O11        -4.9194    1.5967   49.5966 O.2     1  ZINC001345966764   -0.5100
     12 N12        -2.9739    2.6329   49.8533 N.am    1  ZINC001345966764   -0.7000
     13 C13        -2.2353    1.4565   49.3874 C.3     1  ZINC001345966764    0.1200
     14 C14        -1.4583    1.8118   48.1182 C.3     1  ZINC001345966764    0.0600
     15 H15        -1.3920    2.8938   48.0051 H       1  ZINC001345966764    0.0900
     16 C16        -0.0458    1.1879   48.1600 C.3     1  ZINC001345966764   -0.1400
     17 C17         0.2212    0.7647   46.6981 C.3     1  ZINC001345966764   -0.1500
     18 C18        -1.0617    1.1830   45.9461 C.3     1  ZINC001345966764    0.0300
     19 H19        -0.9346    2.1684   45.4979 H       1  ZINC001345966764    0.1200
     20 C20        -1.4094    0.1511   44.8713 C.3     1  ZINC001345966764    0.4600
     21 F21        -2.5622    0.5571   44.1905 F       1  ZINC001345966764   -0.1700
     22 F22        -0.3473    0.0435   43.9672 F       1  ZINC001345966764   -0.1700
     23 F23        -1.6367   -1.0911   45.4735 F       1  ZINC001345966764   -0.1700
     24 O24        -2.0902    1.2231   46.9605 O.3     1  ZINC001345966764   -0.3500
     25 H25       -10.7783    3.3653   48.6195 H       1  ZINC001345966764    0.3500
     26 H26       -10.7362    3.1872   50.2726 H       1  ZINC001345966764    0.3600
     27 H27        -8.4927    3.1777   49.3028 H       1  ZINC001345966764    0.1100
     28 H28        -8.8455    4.8178   48.7078 H       1  ZINC001345966764    0.0700
     29 H29        -6.9591    5.8154   50.1870 H       1  ZINC001345966764    0.1100
     30 H30        -6.8412    5.2259   51.8623 H       1  ZINC001345966764    0.1100
     31 H31        -6.9016    3.0168   50.0697 H       1  ZINC001345966764    0.4200
     32 H32        -2.4943    3.4349   50.1133 H       1  ZINC001345966764    0.4200
     33 H33        -1.5388    1.1347   50.1617 H       1  ZINC001345966764    0.1000
     34 H34        -2.9358    0.6500   49.1708 H       1  ZINC001345966764    0.0900
     35 H35         0.6882    1.9257   48.4841 H       1  ZINC001345966764    0.0900
     36 H36        -0.0313    0.3189   48.8179 H       1  ZINC001345966764    0.0900
     37 H37         1.0871    1.2932   46.2996 H       1  ZINC001345966764    0.1000
     38 H38         0.3676   -0.3135   46.6333 H       1  ZINC001345966764    0.0900
@<TRIPOS>BOND
     1     1     2    1
     2     1    25    1
     3     1    26    1
     4     2     3    1
     5     2    27    1
     6     2    28    1
     7     3     4    1
     8     3     5    1
     9     3     6    1
    10     6     7    1
    11     6    29    1
    12     6    30    1
    13     7     8   am
    14     7    31    1
    15     8     9    2
    16     8    10    1
    17    10    11    2
    18    10    12   am
    19    12    13    1
    20    12    32    1
    21    13    14    1
    22    13    33    1
    23    13    34    1
    24    14    15    1
    25    14    24    1
    26    14    16    1
    27    16    17    1
    28    16    35    1
    29    16    36    1
    30    17    18    1
    31    17    37    1
    32    17    38    1
    33    18    19    1
    34    18    20    1
    35    18    24    1
    36    20    21    1
    37    20    22    1
    38    20    23    1
@<TRIPOS>SUBSTRUCTURE
     1 ZINC001345966764        1 TEMP              0 ****  ****    0 ROOT


##########                                Name:    ZINC000464867530
##########                DOCK_Rotatable_Bonds:                   8
##########                         Heavy_Atoms:                  30
##########                    Molecular_Weight:              422.49
##########                DOCK_Rotatable_Bonds:                   8
##########                       Formal_Charge:         -0.00999994
##########                     HBond_Acceptors:                   7
##########                        HBond_Donors:                   0
##########                         Heavy_Atoms:                  30
##########                          Grid_Score:          -29.271242
##########                     Grid_vdw_energy:          -28.400763
##########                      Grid_es_energy:           -0.870479
##########           Internal_energy_repulsive:           41.647102

@<TRIPOS>MOLECULE
ZINC000464867530
 59 62 1 0 0
SMALL
USER_CHARGES


@<TRIPOS>ATOM
      1 C1         -9.4118    3.9272   50.0122 C.3     1  ZINC000464867530   -0.1500
      2 C2         -7.9971    4.1115   50.5651 C.3     1  ZINC000464867530   -0.1400
      3 C3         -7.4051    2.7452   50.9171 C.3     1  ZINC000464867530    0.0900
      4 N4         -6.1007    2.9288   51.5583 N.am    1  ZINC000464867530   -0.6100
      5 C5         -5.9614    2.7355   53.0038 C.3     1  ZINC000464867530    0.0700
      6 C6         -6.9094    3.6851   53.7390 C.3     1  ZINC000464867530    0.4300
      7 F7         -6.6505    3.6312   55.1128 F       1  ZINC000464867530   -0.1700
      8 F8         -6.7115    4.9910   53.2780 F       1  ZINC000464867530   -0.1800
      9 F9         -8.2330    3.3011   53.4985 F       1  ZINC000464867530   -0.1800
     10 C10        -5.0289    3.2754   50.8183 C.2     1  ZINC000464867530    0.5300
     11 O11        -5.1444    3.4353   49.6215 O.2     1  ZINC000464867530   -0.5100
     12 C12        -3.6871    3.4643   51.4777 C.3     1  ZINC000464867530   -0.1200
     13 H13        -3.5241    2.6690   52.2052 H       1  ZINC000464867530    0.1000
     14 C14        -3.6527    4.8200   52.1867 C.3     1  ZINC000464867530   -0.1200
     15 C15        -2.3023    4.9986   52.8842 C.3     1  ZINC000464867530   -0.1300
     16 C16        -1.1839    4.9718   51.8377 C.3     1  ZINC000464867530    0.1000
     17 N17        -1.2993    3.7344   51.0539 N.am    1  ZINC000464867530   -0.6100
     18 C18        -0.2462    2.9034   50.9235 C.2     1  ZINC000464867530    0.5500
     19 O19         0.8089    3.1734   51.4571 O.2     1  ZINC000464867530   -0.5300
     20 C20        -0.3798    1.6388   50.1150 C.3     1  ZINC000464867530   -0.1700
     21 H21        -1.2960    1.0711   50.2776 H       1  ZINC000464867530    0.1300
     22 C22         0.8986    0.8492   49.8202 C.3     1  ZINC000464867530   -0.1300
     23 C23         0.2101    1.6359   48.7096 C.3     1  ZINC000464867530   -0.0600
     24 C24         0.8512    2.9003   48.1138 C.3     1  ZINC000464867530   -0.0900
     25 C25        -0.0505    3.1786   46.8907 C.3     1  ZINC000464867530   -0.0800
     26 C26        -0.6326    1.8333   46.5113 C.ar    1  ZINC000464867530   -0.0900
     27 C27        -1.2446    1.4189   45.3410 C.ar    1  ZINC000464867530   -0.1100
     28 C28        -1.7074    0.1231   45.2182 C.ar    1  ZINC000464867530   -0.1100
     29 C29        -1.5593   -0.7640   46.2677 C.ar    1  ZINC000464867530   -0.1200
     30 C30        -0.9487   -0.3531   47.4367 C.ar    1  ZINC000464867530   -0.1000
     31 C31        -0.4836    0.9449   47.5625 C.ar    1  ZINC000464867530   -0.0700
     32 C32        -2.5844    3.4192   50.4152 C.3     1  ZINC000464867530    0.1300
     33 H33        -9.3740    3.3061   49.1173 H       1  ZINC000464867530    0.0600
     34 H34       -10.0356    3.4438   50.7640 H       1  ZINC000464867530    0.0600
     35 H35        -9.8335    4.9006   49.7615 H       1  ZINC000464867530    0.0600
     36 H36        -7.3733    4.5949   49.8133 H       1  ZINC000464867530    0.0700
     37 H37        -8.0348    4.7326   51.4600 H       1  ZINC000464867530    0.0700
     38 H38        -8.0756    2.2239   51.6002 H       1  ZINC000464867530    0.0900
     39 H39        -7.2834    2.1568   50.0077 H       1  ZINC000464867530    0.0900
     40 H40        -6.2098    1.7051   53.2581 H       1  ZINC000464867530    0.1300
     41 H41        -4.9340    2.9457   53.3011 H       1  ZINC000464867530    0.1200
     42 H42        -3.7916    5.6161   51.4552 H       1  ZINC000464867530    0.0800
     43 H43        -4.4521    4.8634   52.9264 H       1  ZINC000464867530    0.0800
     44 H44        -2.2871    5.9542   53.4084 H       1  ZINC000464867530    0.0900
     45 H45        -2.1517    4.1890   53.5983 H       1  ZINC000464867530    0.0700
     46 H46        -1.2811    5.8332   51.1769 H       1  ZINC000464867530    0.0700
     47 H47        -0.2154    4.9991   52.3369 H       1  ZINC000464867530    0.0900
     48 H48         1.8361    1.2446   50.2112 H       1  ZINC000464867530    0.1100
     49 H49         0.8232   -0.2377   49.7882 H       1  ZINC000464867530    0.1100
     50 H50         0.8098    3.7274   48.8226 H       1  ZINC000464867530    0.0700
     51 H51         1.8776    2.7054   47.8028 H       1  ZINC000464867530    0.0800
     52 H52        -0.8467    3.8732   47.1583 H       1  ZINC000464867530    0.0800
     53 H53         0.5416    3.5798   46.0681 H       1  ZINC000464867530    0.0800
     54 H54        -1.3611    2.1116   44.5205 H       1  ZINC000464867530    0.1200
     55 H55        -2.1845   -0.1963   44.3035 H       1  ZINC000464867530    0.1300
     56 H56        -1.9209   -1.7773   46.1740 H       1  ZINC000464867530    0.1300
     57 H57        -0.8342   -1.0473   48.2561 H       1  ZINC000464867530    0.1200
     58 H58        -2.5395    2.4226   49.9761 H       1  ZINC000464867530    0.1000
     59 H59        -2.7963    4.1538   49.6383 H       1  ZINC000464867530    0.0800
@<TRIPOS>BOND
     1     1     2    1
     2     1    33    1
     3     1    34    1
     4     1    35    1
     5     2     3    1
     6     2    36    1
     7     2    37    1
     8     3     4    1
     9     3    38    1
    10     3    39    1
    11     4     5    1
    12     4    10   am
    13     5     6    1
    14     5    40    1
    15     5    41    1
    16     6     7    1
    17     6     8    1
    18     6     9    1
    19    10    11    2
    20    10    12    1
    21    12    13    1
    22    12    32    1
    23    12    14    1
    24    14    15    1
    25    14    42    1
    26    14    43    1
    27    15    16    1
    28    15    44    1
    29    15    45    1
    30    16    17    1
    31    16    46    1
    32    16    47    1
    33    17    18   am
    34    17    32    1
    35    18    19    2
    36    18    20    1
    37    20    21    1
    38    20    23    1
    39    20    22    1
    40    22    23    1
    41    22    48    1
    42    22    49    1
    43    23    31    1
    44    23    24    1
    45    24    25    1
    46    24    50    1
    47    24    51    1
    48    25    26    1
    49    25    52    1
    50    25    53    1
    51    26    31   ar
    52    26    27   ar
    53    27    28   ar
    54    27    54    1
    55    28    29   ar
    56    28    55    1
    57    29    30   ar
    58    29    56    1
    59    30    31   ar
    60    30    57    1
    61    32    58    1
    62    32    59    1
@<TRIPOS>SUBSTRUCTURE
     1 ZINC000464867530        1 TEMP              0 ****  ****    0 ROOT


##########                                Name:    ZINC000986832075
##########                DOCK_Rotatable_Bonds:                   7
##########                         Heavy_Atoms:                  25
##########                    Molecular_Weight:             347.433
##########                DOCK_Rotatable_Bonds:                   7
##########                       Formal_Charge:          -0.0200006
##########                     HBond_Acceptors:                   6
##########                        HBond_Donors:                   1
##########                         Heavy_Atoms:                  25
##########                          Grid_Score:          -29.269793
##########                     Grid_vdw_energy:          -29.250212
##########                      Grid_es_energy:           -0.019580
##########           Internal_energy_repulsive:           37.726784

@<TRIPOS>MOLECULE
ZINC000986832075
 51 53 1 0 0
SMALL
USER_CHARGES


@<TRIPOS>ATOM
      1 C1          1.9998    1.6411   48.7565 C.3     1  ZINC000986832075   -0.1700
      2 C2          0.7181    2.3525   48.3184 C.3     1  ZINC000986832075    0.1500
      3 H3          0.9466    3.3865   48.0600 H       1  ZINC000986832075    0.0900
      4 N4          0.1557    1.6701   47.1504 N.am    1  ZINC000986832075   -0.7200
      5 C5          0.6486    1.9209   45.9214 C.2     1  ZINC000986832075    0.5600
      6 O6          1.5606    2.7120   45.7821 O.2     1  ZINC000986832075   -0.5100
      7 C7          0.0793    1.2328   44.7412 C.ar    1  ZINC000986832075   -0.1300
      8 C8          0.8737    0.9363   43.6289 C.ar    1  ZINC000986832075   -0.1100
      9 C9          0.3016    0.2932   42.5491 C.ar    1  ZINC000986832075    0.0900
     10 N10        -0.9738   -0.0405   42.5557 N.ar    1  ZINC000986832075   -0.4400
     11 C11        -1.7598    0.2187   43.5808 C.ar    1  ZINC000986832075    0.0700
     12 C12        -1.2693    0.8550   44.7089 C.ar    1  ZINC000986832075    0.1100
     13 F13        -2.0811    1.1176   45.7563 F       1  ZINC000986832075   -0.1000
     14 C14        -0.2971    2.3253   49.4628 C.3     1  ZINC000986832075   -0.1000
     15 C15        -0.3344    3.6953   50.1438 C.3     1  ZINC000986832075   -0.1300
     16 C16        -1.3263    3.6543   51.3106 C.3     1  ZINC000986832075    0.1100
     17 N17        -2.6282    3.1944   50.8084 N.am    1  ZINC000986832075   -0.6100
     18 C18        -3.7440    3.9170   51.0304 C.2     1  ZINC000986832075    0.5200
     19 O19        -3.6793    4.9576   51.6499 O.2     1  ZINC000986832075   -0.5300
     20 C20        -5.0720    3.4319   50.5088 C.3     1  ZINC000986832075   -0.0800
     21 H21        -4.9664    3.1361   49.4650 H       1  ZINC000986832075    0.0900
     22 C22        -6.1044    4.5557   50.6185 C.3     1  ZINC000986832075   -0.1400
     23 C23        -5.5363    2.2305   51.3348 C.3     1  ZINC000986832075   -0.1400
     24 C24        -6.8643    2.3590   52.0839 C.3     1  ZINC000986832075   -0.1800
     25 C25        -6.7689    1.4691   50.8430 C.3     1  ZINC000986832075   -0.1700
     26 C26        -2.6905    1.9319   50.0594 C.3     1  ZINC000986832075    0.1000
     27 C27        -1.6834    1.9924   48.9067 C.3     1  ZINC000986832075   -0.1300
     28 H28         2.7231    1.6606   47.9413 H       1  ZINC000986832075    0.0600
     29 H29         2.4182    2.1489   49.6257 H       1  ZINC000986832075    0.0700
     30 H30         1.7713    0.6072   49.0150 H       1  ZINC000986832075    0.0600
     31 H31        -0.5715    1.0378   47.2616 H       1  ZINC000986832075    0.4000
     32 H32         1.9192    1.2065   43.6148 H       1  ZINC000986832075    0.1500
     33 H33         0.9080    0.0605   41.6862 H       1  ZINC000986832075    0.1700
     34 H34        -2.7992   -0.0726   43.5425 H       1  ZINC000986832075    0.1800
     35 H35        -0.0054    1.5668   50.1891 H       1  ZINC000986832075    0.0800
     36 H36         0.6587    3.9423   50.5191 H       1  ZINC000986832075    0.0700
     37 H37        -0.6501    4.4508   49.4243 H       1  ZINC000986832075    0.0800
     38 H38        -0.9647    2.9649   52.0735 H       1  ZINC000986832075    0.0700
     39 H39        -1.4307    4.6521   51.7367 H       1  ZINC000986832075    0.0900
     40 H40        -6.1457    4.9119   51.6479 H       1  ZINC000986832075    0.0600
     41 H41        -5.8188    5.3769   49.9611 H       1  ZINC000986832075    0.0600
     42 H42        -7.0842    4.1790   50.3247 H       1  ZINC000986832075    0.0700
     43 H43        -4.7439    1.6523   51.8100 H       1  ZINC000986832075    0.1100
     44 H44        -6.9456    1.8654   53.0523 H       1  ZINC000986832075    0.1000
     45 H45        -7.4071    3.2994   51.9883 H       1  ZINC000986832075    0.0900
     46 H46        -7.2490    1.8240   49.9310 H       1  ZINC000986832075    0.0900
     47 H47        -6.7876    0.3899   50.9950 H       1  ZINC000986832075    0.1000
     48 H48        -2.4402    1.1021   50.7202 H       1  ZINC000986832075    0.0700
     49 H49        -3.6953    1.7933   49.6598 H       1  ZINC000986832075    0.0900
     50 H50        -1.9864    2.7638   48.1988 H       1  ZINC000986832075    0.0800
     51 H51        -1.6504    1.0270   48.4014 H       1  ZINC000986832075    0.0800
@<TRIPOS>BOND
     1     1     2    1
     2     1    28    1
     3     1    29    1
     4     1    30    1
     5     2     3    1
     6     2     4    1
     7     2    14    1
     8     4     5   am
     9     4    31    1
    10     5     6    2
    11     5     7    1
    12     7    12   ar
    13     7     8   ar
    14     8     9   ar
    15     8    32    1
    16     9    10   ar
    17     9    33    1
    18    10    11   ar
    19    11    12   ar
    20    11    34    1
    21    12    13    1
    22    14    27    1
    23    14    15    1
    24    14    35    1
    25    15    16    1
    26    15    36    1
    27    15    37    1
    28    16    17    1
    29    16    38    1
    30    16    39    1
    31    17    18   am
    32    17    26    1
    33    18    19    2
    34    18    20    1
    35    20    21    1
    36    20    22    1
    37    20    23    1
    38    22    40    1
    39    22    41    1
    40    22    42    1
    41    23    25    1
    42    23    24    1
    43    23    43    1
    44    24    25    1
    45    24    44    1
    46    24    45    1
    47    25    46    1
    48    25    47    1
    49    26    27    1
    50    26    48    1
    51    26    49    1
    52    27    50    1
    53    27    51    1
@<TRIPOS>SUBSTRUCTURE
     1 ZINC000986832075        1 TEMP              0 ****  ****    0 ROOT


##########                                Name:    ZINC000626935317
##########                DOCK_Rotatable_Bonds:                   6
##########                         Heavy_Atoms:                  25
##########                    Molecular_Weight:             366.441
##########                DOCK_Rotatable_Bonds:                   6
##########                       Formal_Charge:          -0.0200006
##########                     HBond_Acceptors:                   9
##########                        HBond_Donors:                   2
##########                         Heavy_Atoms:                  25
##########                          Grid_Score:          -29.266609
##########                     Grid_vdw_energy:          -28.315702
##########                      Grid_es_energy:           -0.950906
##########           Internal_energy_repulsive:           10.232806

@<TRIPOS>MOLECULE
ZINC000626935317
 47 49 1 0 0
SMALL
USER_CHARGES


@<TRIPOS>ATOM
      1 C1         -0.9493   -1.1802   47.9824 C.3     1  ZINC000626935317    0.0900
      2 N2         -1.0669   -0.2275   46.8756 N.am    1  ZINC000626935317   -0.6200
      3 C3         -1.5142   -0.5426   45.6479 C.2     1  ZINC000626935317    0.5200
      4 O4         -1.8685   -1.6493   45.3006 O.2     1  ZINC000626935317   -0.5200
      5 C5         -1.5117    0.6840   44.7625 C.3     1  ZINC000626935317   -0.1500
      6 C6         -1.3924    1.8659   45.7524 C.3     1  ZINC000626935317   -0.1200
      7 H7         -2.3762    2.2504   46.0213 H       1  ZINC000626935317    0.1200
      8 C8         -0.5257    2.9600   45.1842 C.2     1  ZINC000626935317    0.5300
      9 O9         -0.9089    4.1104   45.2061 O.2     1  ZINC000626935317   -0.5200
     10 N10         0.6756    2.6599   44.6517 N.am    1  ZINC000626935317   -0.7100
     11 C11         1.5175    3.7231   44.0978 C.3     1  ZINC000626935317    0.1200
     12 C12         2.4411    4.3817   45.1361 C.3     1  ZINC000626935317   -0.1600
     13 C13         3.4782    3.3028   44.7821 C.3     1  ZINC000626935317    0.1200
     14 N14         3.3567    2.0852   45.5875 N.am    1  ZINC000626935317   -1.1100
     15 S15         4.6988    1.1726   45.9164 S.o2    1  ZINC000626935317    2.6100
     16 C16         4.0753   -0.2038   46.9201 C.3     1  ZINC000626935317   -0.6700
     17 O17         5.1270    0.7077   44.6437 O.2     1  ZINC000626935317   -0.9500
     18 O18         5.5210    2.0278   46.6986 O.2     1  ZINC000626935317   -0.9500
     19 C19         2.7913    3.2047   43.4096 C.3     1  ZINC000626935317   -0.1600
     20 C20        -0.7172    1.1950   46.9669 C.3     1  ZINC000626935317    0.2000
     21 H21         0.3647    1.3155   46.9113 H       1  ZINC000626935317    0.1100
     22 C22        -1.2420    1.7881   48.2489 C.ar    1  ZINC000626935317   -0.1600
     23 C23        -0.3774    2.3928   49.1482 C.ar    1  ZINC000626935317   -0.0500
     24 C24        -0.9050    2.9253   50.3149 C.ar    1  ZINC000626935317   -0.1700
     25 C25        -2.2653    2.8363   50.5407 C.ar    1  ZINC000626935317    0.1000
     26 N26        -3.0583    2.2537   49.6626 N.ar    1  ZINC000626935317   -0.4800
     27 C27        -2.5924    1.7412   48.5405 C.ar    1  ZINC000626935317    0.1200
     28 H28        -1.8818   -1.1988   48.5464 H       1  ZINC000626935317    0.0600
     29 H29        -0.7449   -2.1747   47.5856 H       1  ZINC000626935317    0.0800
     30 H30        -0.1337   -0.8762   48.6385 H       1  ZINC000626935317    0.0700
     31 H31        -0.6569    0.6648   44.0865 H       1  ZINC000626935317    0.1100
     32 H32        -2.4428    0.7502   44.1998 H       1  ZINC000626935317    0.1200
     33 H33         0.9827    1.7399   44.6353 H       1  ZINC000626935317    0.4000
     34 H34         0.9559    4.4374   43.4957 H       1  ZINC000626935317    0.1100
     35 H35         2.7516    5.3911   44.8664 H       1  ZINC000626935317    0.1100
     36 H36         2.0691    4.3111   46.1583 H       1  ZINC000626935317    0.0800
     37 H37         4.5002    3.6786   44.7345 H       1  ZINC000626935317    0.1100
     38 H38         2.4899    1.8134   45.9282 H       1  ZINC000626935317    0.4100
     39 H39         3.3332   -0.7624   46.3498 H       1  ZINC000626935317    0.1300
     40 H40         4.9016   -0.8634   47.1854 H       1  ZINC000626935317    0.1300
     41 H41         3.6167    0.1873   47.8283 H       1  ZINC000626935317    0.1300
     42 H42         2.7022    2.1839   43.0379 H       1  ZINC000626935317    0.0900
     43 H43         3.1976    3.8923   42.6679 H       1  ZINC000626935317    0.1100
     44 H44         0.6819    2.4473   48.9452 H       1  ZINC000626935317    0.1400
     45 H45        -0.2607    3.4034   51.0380 H       1  ZINC000626935317    0.1400
     46 H46        -2.6840    3.2483   51.4470 H       1  ZINC000626935317    0.1600
     47 H47        -3.2725    1.2717   47.8453 H       1  ZINC000626935317    0.1500
@<TRIPOS>BOND
     1     1     2    1
     2     1    28    1
     3     1    29    1
     4     1    30    1
     5     2    20    1
     6     2     3   am
     7     3     4    2
     8     3     5    1
     9     5     6    1
    10     5    31    1
    11     5    32    1
    12     6     7    1
    13     6     8    1
    14     6    20    1
    15     8     9    2
    16     8    10   am
    17    10    11    1
    18    10    33    1
    19    11    19    1
    20    11    12    1
    21    11    34    1
    22    12    13    1
    23    12    35    1
    24    12    36    1
    25    13    14    1
    26    13    19    1
    27    13    37    1
    28    14    15   am
    29    14    38    1
    30    15    16    1
    31    15    17    2
    32    15    18    2
    33    16    39    1
    34    16    40    1
    35    16    41    1
    36    19    42    1
    37    19    43    1
    38    20    21    1
    39    20    22    1
    40    22    27   ar
    41    22    23   ar
    42    23    24   ar
    43    23    44    1
    44    24    25   ar
    45    24    45    1
    46    25    26   ar
    47    25    46    1
    48    26    27   ar
    49    27    47    1
@<TRIPOS>SUBSTRUCTURE
     1 ZINC000626935317        1 TEMP              0 ****  ****    0 ROOT


##########                                Name:    ZINC000435292384
##########                DOCK_Rotatable_Bonds:                   6
##########                         Heavy_Atoms:                  22
##########                    Molecular_Weight:             326.503
##########                DOCK_Rotatable_Bonds:                   6
##########                       Formal_Charge:         -0.00999993
##########                     HBond_Acceptors:                   5
##########                        HBond_Donors:                   0
##########                         Heavy_Atoms:                  22
##########                          Grid_Score:          -29.244852
##########                     Grid_vdw_energy:          -29.449303
##########                      Grid_es_energy:            0.204450
##########           Internal_energy_repulsive:           21.163013

@<TRIPOS>MOLECULE
ZINC000435292384
 52 53 1 0 0
SMALL
USER_CHARGES


@<TRIPOS>ATOM
      1 C1         -1.4061    0.2856   44.9222 C.3     1  ZINC000435292384   -0.1500
      2 C2         -0.6753    0.6190   46.2243 C.3     1  ZINC000435292384   -0.1200
      3 C3         -1.6827    1.1222   47.2601 C.3     1  ZINC000435292384   -0.1400
      4 C4         -0.9361    1.6031   48.5060 C.3     1  ZINC000435292384    0.1600
      5 H5         -0.0639    2.1836   48.2053 H       1  ZINC000435292384    0.0900
      6 C6         -0.4854    0.3945   49.3287 C.3     1  ZINC000435292384   -0.1700
      7 N7         -1.8251    2.4406   49.3151 N.am    1  ZINC000435292384   -0.6100
      8 C8         -3.2558    2.1798   49.5124 C.3     1  ZINC000435292384    0.1200
      9 C9         -3.6631    3.0242   50.7402 C.3     1  ZINC000435292384   -0.1300
     10 H10        -3.5845    2.4413   51.6579 H       1  ZINC000435292384    0.1100
     11 C11        -5.0541    3.5800   50.5751 C.2     1  ZINC000435292384    0.5200
     12 O12        -5.2141    4.7669   50.3841 O.2     1  ZINC000435292384   -0.5200
     13 N13        -6.1203    2.7581   50.6398 N.am    1  ZINC000435292384   -0.6000
     14 C14        -5.8910    1.3188   50.8737 C.3     1  ZINC000435292384    0.1000
     15 C15        -6.8977    0.7263   51.8763 C.3     1  ZINC000435292384   -0.1300
     16 C16        -7.1324    1.6950   53.0091 C.3     1  ZINC000435292384   -0.1100
     17 C17        -8.3247    2.5859   52.6736 C.3     1  ZINC000435292384   -0.1200
     18 C18        -7.9908    3.7629   51.8571 C.3     1  ZINC000435292384   -0.0700
     19 H19        -7.2367    4.3576   52.3728 H       1  ZINC000435292384    0.0900
     20 S20        -9.4821    4.7663   51.6121 S.3     1  ZINC000435292384   -0.2500
     21 C21        -9.5708    5.7446   53.1371 C.3     1  ZINC000435292384   -0.1200
     22 C22        -7.4417    3.3235   50.4832 C.3     1  ZINC000435292384    0.1400
     23 C23        -2.6077    4.1539   50.7102 C.3     1  ZINC000435292384   -0.1400
     24 C24        -1.4339    3.5433   49.9767 C.2     1  ZINC000435292384    0.5200
     25 O25        -0.3056    3.9882   49.9793 O.2     1  ZINC000435292384   -0.5200
     26 H26        -0.6884   -0.0728   44.1842 H       1  ZINC000435292384    0.0500
     27 H27        -2.1502   -0.4882   45.1110 H       1  ZINC000435292384    0.0500
     28 H28        -1.9004    1.1803   44.5435 H       1  ZINC000435292384    0.0500
     29 H29        -0.1810   -0.2756   46.6029 H       1  ZINC000435292384    0.0600
     30 H30         0.0688    1.3929   46.0354 H       1  ZINC000435292384    0.0600
     31 H31        -2.2556    1.9480   46.8385 H       1  ZINC000435292384    0.0800
     32 H32        -2.3594    0.3121   47.5321 H       1  ZINC000435292384    0.0800
     33 H33        -1.3577   -0.1860   49.6293 H       1  ZINC000435292384    0.0700
     34 H34         0.1759   -0.2287   48.7267 H       1  ZINC000435292384    0.0700
     35 H35         0.0464    0.7371   50.2163 H       1  ZINC000435292384    0.0600
     36 H36        -3.8209    2.4936   48.6346 H       1  ZINC000435292384    0.0900
     37 H37        -3.4224    1.1211   49.7105 H       1  ZINC000435292384    0.0800
     38 H38        -5.9809    0.7876   49.9261 H       1  ZINC000435292384    0.0700
     39 H39        -4.8818    1.1796   51.2612 H       1  ZINC000435292384    0.0900
     40 H40        -7.8414    0.5294   51.3676 H       1  ZINC000435292384    0.0700
     41 H41        -6.5027   -0.2079   52.2757 H       1  ZINC000435292384    0.0800
     42 H42        -7.3388    1.1408   53.9247 H       1  ZINC000435292384    0.0700
     43 H43        -6.2452    2.3125   53.1493 H       1  ZINC000435292384    0.0600
     44 H44        -9.0618    1.9895   52.1358 H       1  ZINC000435292384    0.0800
     45 H45        -8.7745    2.9276   53.6057 H       1  ZINC000435292384    0.0600
     46 H46        -9.6521    5.0756   53.9938 H       1  ZINC000435292384    0.0800
     47 H47        -8.6696    6.3502   53.2333 H       1  ZINC000435292384    0.0800
     48 H48       -10.4440    6.3960   53.1007 H       1  ZINC000435292384    0.1000
     49 H49        -7.3883    4.1871   49.8205 H       1  ZINC000435292384    0.0900
     50 H50        -8.1047    2.5746   50.0500 H       1  ZINC000435292384    0.0900
     51 H51        -2.9910    5.0199   50.1705 H       1  ZINC000435292384    0.1100
     52 H52        -2.3179    4.4322   51.7234 H       1  ZINC000435292384    0.1100
@<TRIPOS>BOND
     1     1     2    1
     2     1    26    1
     3     1    27    1
     4     1    28    1
     5     2     3    1
     6     2    29    1
     7     2    30    1
     8     3     4    1
     9     3    31    1
    10     3    32    1
    11     4     5    1
    12     4     6    1
    13     4     7    1
    14     6    33    1
    15     6    34    1
    16     6    35    1
    17     7    24   am
    18     7     8    1
    19     8     9    1
    20     8    36    1
    21     8    37    1
    22     9    10    1
    23     9    11    1
    24     9    23    1
    25    11    12    2
    26    11    13   am
    27    13    22    1
    28    13    14    1
    29    14    15    1
    30    14    38    1
    31    14    39    1
    32    15    16    1
    33    15    40    1
    34    15    41    1
    35    16    17    1
    36    16    42    1
    37    16    43    1
    38    17    18    1
    39    17    44    1
    40    17    45    1
    41    18    19    1
    42    18    20    1
    43    18    22    1
    44    20    21    1
    45    21    46    1
    46    21    47    1
    47    21    48    1
    48    22    49    1
    49    22    50    1
    50    23    24    1
    51    23    51    1
    52    23    52    1
    53    24    25    2
@<TRIPOS>SUBSTRUCTURE
     1 ZINC000435292384        1 TEMP              0 ****  ****    0 ROOT


##########                                Name:    ZINC000469459940
##########                DOCK_Rotatable_Bonds:                   7
##########                         Heavy_Atoms:                  24
##########                    Molecular_Weight:             414.295
##########                DOCK_Rotatable_Bonds:                   7
##########                       Formal_Charge:          -0.0200002
##########                     HBond_Acceptors:                   6
##########                        HBond_Donors:                   1
##########                         Heavy_Atoms:                  24
##########                          Grid_Score:          -29.225264
##########                     Grid_vdw_energy:          -29.370070
##########                      Grid_es_energy:            0.144807
##########           Internal_energy_repulsive:           12.180469

@<TRIPOS>MOLECULE
ZINC000469459940
 41 42 1 0 0
SMALL
USER_CHARGES


@<TRIPOS>ATOM
      1 C1         -2.7863    4.4586   52.4040 C.3     1  ZINC000469459940   -0.1600
      2 C2         -3.1717    4.5589   50.9268 C.3     1  ZINC000469459940   -0.1200
      3 C3         -4.5851    4.0072   50.7297 C.3     1  ZINC000469459940   -0.1200
      4 C4         -4.6182    2.5325   51.1360 C.3     1  ZINC000469459940   -0.6000
      5 S5         -6.2958    1.8806   50.9099 S.o2    1  ZINC000469459940    2.4900
      6 O6         -7.1480    2.8764   50.3610 O.2     1  ZINC000469459940   -0.9300
      7 O7         -6.2520    0.5705   50.3613 O.2     1  ZINC000469459940   -0.9300
      8 C8         -6.9008    1.6456   52.5480 C.ar    1  ZINC000469459940   -0.6400
      9 C9         -6.4855    2.4891   53.5631 C.ar    1  ZINC000469459940   -0.0300
     10 C10        -6.9550    2.3104   54.8480 C.ar    1  ZINC000469459940   -0.0800
     11 C11        -7.8513    1.2761   55.1227 C.ar    1  ZINC000469459940   -0.0900
     12 C12        -8.3589    1.0790   56.4969 C.2     1  ZINC000469459940    0.5600
     13 O13        -9.5502    0.9320   56.6895 O.2     1  ZINC000469459940   -0.5000
     14 N14        -7.5011    1.0624   57.5362 N.am    1  ZINC000469459940   -0.6700
     15 C15        -7.9815    0.8759   58.8366 C.ar    1  ZINC000469459940    0.1900
     16 C16        -8.6752   -0.2823   59.1621 C.ar    1  ZINC000469459940   -0.1500
     17 C17        -9.1492   -0.4652   60.4468 C.ar    1  ZINC000469459940   -0.0400
     18 C18        -8.9341    0.5040   61.4096 C.ar    1  ZINC000469459940   -0.1500
     19 Br19       -9.5846    0.2496   63.1670 Br      1  ZINC000469459940   -0.0200
     20 C20        -8.2422    1.6613   61.0886 C.ar    1  ZINC000469459940    0.1500
     21 F21        -8.0333    2.6067   62.0309 F       1  ZINC000469459940   -0.1200
     22 C22        -7.7605    1.8460   59.8054 C.ar    1  ZINC000469459940   -0.1500
     23 C23        -8.2666    0.4290   54.0938 C.ar    1  ZINC000469459940   -0.1100
     24 C24        -7.7933    0.6219   52.8123 C.ar    1  ZINC000469459940   -0.0300
     25 H25        -3.4892    5.0378   53.0030 H       1  ZINC000469459940    0.0600
     26 H26        -2.8160    3.4150   52.7172 H       1  ZINC000469459940    0.0600
     27 H27        -1.7794    4.8516   52.5444 H       1  ZINC000469459940    0.0600
     28 H28        -3.1420    5.6024   50.6135 H       1  ZINC000469459940    0.0700
     29 H29        -2.4688    3.9797   50.3279 H       1  ZINC000469459940    0.0700
     30 H30        -5.2844    4.5702   51.3479 H       1  ZINC000469459940    0.0800
     31 H31        -4.8692    4.1018   49.6817 H       1  ZINC000469459940    0.0800
     32 H32        -3.9225    1.9687   50.5147 H       1  ZINC000469459940    0.1400
     33 H33        -4.3296    2.4375   52.1828 H       1  ZINC000469459940    0.1400
     34 H34        -5.7921    3.2890   53.3493 H       1  ZINC000469459940    0.1500
     35 H35        -6.6296    2.9690   55.6396 H       1  ZINC000469459940    0.1500
     36 H36        -6.5506    1.1798   57.3825 H       1  ZINC000469459940    0.4200
     37 H37        -8.8445   -1.0397   58.4111 H       1  ZINC000469459940    0.1500
     38 H38        -9.6886   -1.3660   60.6995 H       1  ZINC000469459940    0.1500
     39 H39        -7.2212    2.7475   59.5548 H       1  ZINC000469459940    0.1600
     40 H40        -8.9595   -0.3733   54.2997 H       1  ZINC000469459940    0.1400
     41 H41        -8.1137   -0.0327   52.0154 H       1  ZINC000469459940    0.1500
@<TRIPOS>BOND
     1     1     2    1
     2     1    25    1
     3     1    26    1
     4     1    27    1
     5     2     3    1
     6     2    28    1
     7     2    29    1
     8     3     4    1
     9     3    30    1
    10     3    31    1
    11     4     5    1
    12     4    32    1
    13     4    33    1
    14     5     6    2
    15     5     7    2
    16     5     8    1
    17     8    24   ar
    18     8     9   ar
    19     9    10   ar
    20     9    34    1
    21    10    11   ar
    22    10    35    1
    23    11    12    1
    24    11    23   ar
    25    12    13    2
    26    12    14   am
    27    14    15    1
    28    14    36    1
    29    15    22   ar
    30    15    16   ar
    31    16    17   ar
    32    16    37    1
    33    17    18   ar
    34    17    38    1
    35    18    19    1
    36    18    20   ar
    37    20    21    1
    38    20    22   ar
    39    22    39    1
    40    23    24   ar
    41    23    40    1
    42    24    41    1
@<TRIPOS>SUBSTRUCTURE
     1 ZINC000469459940        1 TEMP              0 ****  ****    0 ROOT


##########                                Name:    ZINC001272744746
##########                DOCK_Rotatable_Bonds:                   6
##########                         Heavy_Atoms:                  25
##########                    Molecular_Weight:             348.417
##########                DOCK_Rotatable_Bonds:                   6
##########                       Formal_Charge:           0.0299999
##########                     HBond_Acceptors:                   6
##########                        HBond_Donors:                   1
##########                         Heavy_Atoms:                  25
##########                          Grid_Score:          -29.224970
##########                     Grid_vdw_energy:          -28.433443
##########                      Grid_es_energy:           -0.791528
##########           Internal_energy_repulsive:           25.008789

@<TRIPOS>MOLECULE
ZINC001272744746
 50 52 1 0 0
SMALL
USER_CHARGES


@<TRIPOS>ATOM
      1 C1         -0.8696    3.9246   52.8457 C.2     1  ZINC001272744746   -0.1700
      2 C2         -2.0767    3.7690   52.3612 C.2     1  ZINC001272744746   -0.1700
      3 C3         -2.3765    4.1738   50.9409 C.3     1  ZINC001272744746    0.1500
      4 N4         -1.7285    3.2375   50.0191 N.am    1  ZINC001272744746   -0.6100
      5 C5         -0.3898    3.4312   49.4458 C.3     1  ZINC001272744746    0.0700
      6 C6          0.0262    2.0514   48.9077 C.3     1  ZINC001272744746    0.1100
      7 C7         -1.3313    1.3696   48.6569 C.3     1  ZINC001272744746   -0.1500
      8 C8         -2.2805    2.0872   49.5933 C.2     1  ZINC001272744746    0.5200
      9 O9         -3.3814    1.6870   49.9076 O.2     1  ZINC001272744746   -0.5200
     10 C10         0.8230    1.2862   49.9552 C.3     1  ZINC001272744746   -0.1000
     11 C11         2.1576    1.9991   50.1989 C.3     1  ZINC001272744746   -0.1200
     12 C12         2.9053    2.1291   48.8690 C.3     1  ZINC001272744746   -0.1200
     13 C13         2.0398    2.9038   47.8727 C.3     1  ZINC001272744746    0.0500
     14 N14         0.7744    2.1864   47.6616 N.3     1  ZINC001272744746   -0.5100
     15 C15        -0.0374    2.8437   46.6287 C.3     1  ZINC001272744746    0.0800
     16 C16        -0.2198    1.9075   45.4619 C.ar    1  ZINC001272744746   -0.0200
     17 C17        -1.4924    1.5808   45.0325 C.ar    1  ZINC001272744746   -0.1700
     18 C18        -1.6647    0.7210   43.9611 C.ar    1  ZINC001272744746    0.1200
     19 F19        -2.9095    0.4031   43.5430 F       1  ZINC001272744746   -0.1200
     20 C20        -0.5587    0.1867   43.3167 C.ar    1  ZINC001272744746    0.0400
     21 O21        -0.7253   -0.6579   42.2633 O.3     1  ZINC001272744746   -0.4700
     22 C22         0.7213    0.5169   43.7498 C.ar    1  ZINC001272744746    0.1300
     23 O23         1.8087   -0.0041   43.1211 O.3     1  ZINC001272744746   -0.3000
     24 C24         3.0904    0.3317   43.6565 C.3     1  ZINC001272744746    0.0200
     25 C25         0.8862    1.3819   44.8200 C.ar    1  ZINC001272744746   -0.1800
     26 H26        -0.0892    4.3429   52.2273 H       1  ZINC001272744746    0.1000
     27 H27        -0.6558    3.6386   53.8650 H       1  ZINC001272744746    0.1000
     28 H28        -2.8571    3.3507   52.9796 H       1  ZINC001272744746    0.1100
     29 H29        -3.4541    4.1570   50.7780 H       1  ZINC001272744746    0.0900
     30 H30        -1.9977    5.1803   50.7622 H       1  ZINC001272744746    0.0800
     31 H31        -0.4281    4.1573   48.6338 H       1  ZINC001272744746    0.0700
     32 H32         0.3068    3.7616   50.2163 H       1  ZINC001272744746    0.0900
     33 H33        -1.6392    1.5018   47.6196 H       1  ZINC001272744746    0.1100
     34 H34        -1.2790    0.3103   48.9086 H       1  ZINC001272744746    0.1100
     35 H35         0.2566    1.2466   50.8856 H       1  ZINC001272744746    0.0700
     36 H36         1.0114    0.2730   49.6003 H       1  ZINC001272744746    0.0800
     37 H37         1.9712    2.9910   50.6109 H       1  ZINC001272744746    0.0600
     38 H38         2.7581    1.4190   50.8996 H       1  ZINC001272744746    0.0700
     39 H39         3.8418    2.6633   49.0291 H       1  ZINC001272744746    0.0700
     40 H40         3.1162    1.1361   48.4719 H       1  ZINC001272744746    0.0700
     41 H41         1.8322    3.8981   48.2681 H       1  ZINC001272744746    0.0400
     42 H42         2.5693    2.9934   46.9242 H       1  ZINC001272744746    0.0900
     43 H43        -1.0120    3.1025   47.0427 H       1  ZINC001272744746    0.1000
     44 H44         0.4666    3.7497   46.2923 H       1  ZINC001272744746    0.0600
     45 H45        -2.3538    1.9966   45.5340 H       1  ZINC001272744746    0.1400
     46 H46         0.1032   -0.9601   41.8665 H       1  ZINC001272744746    0.3900
     47 H47         3.1551   -0.0141   44.6883 H       1  ZINC001272744746    0.0600
     48 H48         3.8690   -0.1478   43.0632 H       1  ZINC001272744746    0.1100
     49 H49         3.2249    1.4129   43.6266 H       1  ZINC001272744746    0.0600
     50 H50         1.8792    1.6394   45.1577 H       1  ZINC001272744746    0.1400
@<TRIPOS>BOND
     1     1     2    2
     2     1    26    1
     3     1    27    1
     4     2     3    1
     5     2    28    1
     6     3     4    1
     7     3    29    1
     8     3    30    1
     9     4     8   am
    10     4     5    1
    11     5     6    1
    12     5    31    1
    13     5    32    1
    14     6    14    1
    15     6     7    1
    16     6    10    1
    17     7     8    1
    18     7    33    1
    19     7    34    1
    20     8     9    2
    21    10    11    1
    22    10    35    1
    23    10    36    1
    24    11    12    1
    25    11    37    1
    26    11    38    1
    27    12    13    1
    28    12    39    1
    29    12    40    1
    30    13    14    1
    31    13    41    1
    32    13    42    1
    33    14    15    1
    34    15    16    1
    35    15    43    1
    36    15    44    1
    37    16    25   ar
    38    16    17   ar
    39    17    18   ar
    40    17    45    1
    41    18    19    1
    42    18    20   ar
    43    20    21    1
    44    20    22   ar
    45    21    46    1
    46    22    23    1
    47    22    25   ar
    48    23    24    1
    49    24    47    1
    50    24    48    1
    51    24    49    1
    52    25    50    1
@<TRIPOS>SUBSTRUCTURE
     1 ZINC001272744746        1 TEMP              0 ****  ****    0 ROOT


##########                                Name:    ZINC000646817380
##########                DOCK_Rotatable_Bonds:                   6
##########                         Heavy_Atoms:                  25
##########                    Molecular_Weight:             347.457
##########                DOCK_Rotatable_Bonds:                   6
##########                       Formal_Charge:           0.0199991
##########                     HBond_Acceptors:                   6
##########                        HBond_Donors:                   1
##########                         Heavy_Atoms:                  25
##########                          Grid_Score:          -29.183964
##########                     Grid_vdw_energy:          -27.909943
##########                      Grid_es_energy:           -1.274021
##########           Internal_energy_repulsive:           68.236961

@<TRIPOS>MOLECULE
ZINC000646817380
 54 56 1 0 0
SMALL
USER_CHARGES


@<TRIPOS>ATOM
      1 C1          0.2568    0.5508   49.7483 C.3     1  ZINC000646817380   -0.1500
      2 C2         -0.3832    0.2757   48.3861 C.3     1  ZINC000646817380   -0.0100
      3 C3         -0.6952   -1.2170   48.2613 C.3     1  ZINC000646817380   -0.1500
      4 C4         -1.6592    1.0678   48.2614 C.2     1  ZINC000646817380   -0.0100
      5 C5         -2.5003    1.4082   49.2643 C.2     1  ZINC000646817380   -0.2200
      6 C6         -3.5301    2.1394   48.6142 C.2     1  ZINC000646817380    0.2400
      7 N7         -4.6500    2.7170   49.2097 N.am    1  ZINC000646817380   -0.6100
      8 C8         -4.8376    2.6077   50.5398 C.2     1  ZINC000646817380    0.5200
      9 O9         -4.0324    2.0050   51.2188 O.2     1  ZINC000646817380   -0.4900
     10 C10        -6.0370    3.2283   51.1784 C.2     1  ZINC000646817380    0.5300
     11 O11        -6.3131    4.3882   50.9519 O.2     1  ZINC000646817380   -0.5100
     12 N12        -6.8124    2.5002   52.0061 N.am    1  ZINC000646817380   -0.5800
     13 C13        -6.5946    1.0916   52.3662 C.3     1  ZINC000646817380    0.1000
     14 C14        -7.7412    0.6781   53.3127 C.3     1  ZINC000646817380   -0.1300
     15 C15        -8.8524    1.7099   52.9840 C.3     1  ZINC000646817380   -0.1000
     16 H16        -9.4170    1.4083   52.1017 H       1  ZINC000646817380    0.1000
     17 C17        -9.7814    1.9158   54.1820 C.3     1  ZINC000646817380   -0.0700
     18 H18        -9.2345    1.7526   55.1107 H       1  ZINC000646817380    0.0800
     19 C19       -10.3671    3.3428   54.1576 C.3     1  ZINC000646817380   -0.1300
     20 C20       -11.8200    3.1658   54.6643 C.3     1  ZINC000646817380   -0.1300
     21 C21       -12.2450    1.8223   54.0213 C.3     1  ZINC000646817380   -0.1200
     22 C22       -10.9747    0.9482   54.0961 C.3     1  ZINC000646817380   -0.0700
     23 C23       -10.8588    0.0835   52.8392 C.3     1  ZINC000646817380   -0.1600
     24 C24       -11.0222    0.0603   55.3413 C.3     1  ZINC000646817380   -0.1400
     25 C25        -8.0159    2.9863   52.7051 C.3     1  ZINC000646817380    0.0900
     26 N26        -3.2163    2.1622   47.3452 N.2     1  ZINC000646817380   -0.3800
     27 O27        -2.1790    1.5773   47.1354 O.3     1  ZINC000646817380    0.1100
     28 H28         1.1797   -0.0221   49.8385 H       1  ZINC000646817380    0.0700
     29 H29         0.4791    1.6141   49.8373 H       1  ZINC000646817380    0.0600
     30 H30        -0.4325    0.2563   50.5398 H       1  ZINC000646817380    0.0600
     31 H31         0.3061    0.5701   47.5947 H       1  ZINC000646817380    0.1100
     32 H32        -1.3845   -1.5115   49.0528 H       1  ZINC000646817380    0.0600
     33 H33        -1.1511   -1.4130   47.2909 H       1  ZINC000646817380    0.0600
     34 H34         0.2277   -1.7898   48.3515 H       1  ZINC000646817380    0.0700
     35 H35        -2.4100    1.1773   50.3155 H       1  ZINC000646817380    0.1900
     36 H36        -5.2942    3.1977   48.6668 H       1  ZINC000646817380    0.4300
     37 H37        -6.6127    0.4725   51.4692 H       1  ZINC000646817380    0.0800
     38 H38        -5.6367    0.9829   52.8748 H       1  ZINC000646817380    0.0800
     39 H39        -8.0778   -0.3348   53.0912 H       1  ZINC000646817380    0.0900
     40 H40        -7.4314    0.7636   54.3542 H       1  ZINC000646817380    0.0800
     41 H41        -9.8068    3.9966   54.8260 H       1  ZINC000646817380    0.0700
     42 H42       -10.3628    3.7395   53.1422 H       1  ZINC000646817380    0.0800
     43 H43       -11.8442    3.0983   55.7519 H       1  ZINC000646817380    0.0700
     44 H44       -12.4536    3.9800   54.3125 H       1  ZINC000646817380    0.0700
     45 H45       -13.0553    1.3665   54.5904 H       1  ZINC000646817380    0.0700
     46 H46       -12.5440    1.9734   52.9840 H       1  ZINC000646817380    0.0700
     47 H47       -11.1798    0.6594   51.9712 H       1  ZINC000646817380    0.0700
     48 H48        -9.8225   -0.2270   52.7062 H       1  ZINC000646817380    0.0600
     49 H49       -11.4915   -0.7977   52.9448 H       1  ZINC000646817380    0.0500
     50 H50       -11.8848   -0.6033   55.2816 H       1  ZINC000646817380    0.0600
     51 H51       -10.1101   -0.5337   55.3988 H       1  ZINC000646817380    0.0500
     52 H52       -11.1054    0.6854   56.2302 H       1  ZINC000646817380    0.0600
     53 H53        -7.7459    3.4749   53.6413 H       1  ZINC000646817380    0.0900
     54 H54        -8.5716    3.6716   52.0651 H       1  ZINC000646817380    0.1000
@<TRIPOS>BOND
     1     1     2    1
     2     1    28    1
     3     1    29    1
     4     1    30    1
     5     2     3    1
     6     2     4    1
     7     2    31    1
     8     3    32    1
     9     3    33    1
    10     3    34    1
    11     4    27    1
    12     4     5    2
    13     5     6    1
    14     5    35    1
    15     6     7    1
    16     6    26    2
    17     7     8   am
    18     7    36    1
    19     8     9    2
    20     8    10    1
    21    10    11    2
    22    10    12   am
    23    12    25    1
    24    12    13    1
    25    13    14    1
    26    13    37    1
    27    13    38    1
    28    14    15    1
    29    14    39    1
    30    14    40    1
    31    15    16    1
    32    15    17    1
    33    15    25    1
    34    17    18    1
    35    17    22    1
    36    17    19    1
    37    19    20    1
    38    19    41    1
    39    19    42    1
    40    20    21    1
    41    20    43    1
    42    20    44    1
    43    21    22    1
    44    21    45    1
    45    21    46    1
    46    22    23    1
    47    22    24    1
    48    23    47    1
    49    23    48    1
    50    23    49    1
    51    24    50    1
    52    24    51    1
    53    24    52    1
    54    25    53    1
    55    25    54    1
    56    26    27    1
@<TRIPOS>SUBSTRUCTURE
     1 ZINC000646817380        1 TEMP              0 ****  ****    0 ROOT


##########                                Name:    ZINC000826324849
##########                DOCK_Rotatable_Bonds:                   4
##########                         Heavy_Atoms:                  27
##########                    Molecular_Weight:             395.374
##########                DOCK_Rotatable_Bonds:                   4
##########                       Formal_Charge:           0.0400001
##########                     HBond_Acceptors:                  13
##########                        HBond_Donors:                   1
##########                         Heavy_Atoms:                  27
##########                          Grid_Score:          -29.149822
##########                     Grid_vdw_energy:          -28.466660
##########                      Grid_es_energy:           -0.683163
##########           Internal_energy_repulsive:          132.133606

@<TRIPOS>MOLECULE
ZINC000826324849
 41 44 1 0 0
SMALL
USER_CHARGES


@<TRIPOS>ATOM
      1 C1         -1.3068    1.8336   47.2959 C.3     1  ZINC000826324849   -0.0600
      2 C2         -2.3666    1.7767   48.3658 C.2     1  ZINC000826324849    0.2000
      3 N3         -3.5439    2.3531   48.3303 N.2     1  ZINC000826324849   -0.4600
      4 C4         -4.1407    2.0293   49.4913 C.2     1  ZINC000826324849    0.1600
      5 C5         -5.5183    2.4503   49.9337 C.3     1  ZINC000826324849    0.2200
      6 H6         -6.1241    2.6982   49.0621 H       1  ZINC000826324849    0.1300
      7 C7         -6.1806    1.3100   50.7153 C.3     1  ZINC000826324849    0.0600
      8 O8         -7.4036    1.7797   51.2876 O.3     1  ZINC000826324849   -0.3600
      9 C9         -7.2380    2.8367   52.2358 C.3     1  ZINC000826324849    0.0400
     10 C10        -6.6299    4.0553   51.5321 C.3     1  ZINC000826324849    0.0800
     11 N11        -5.4183    3.6227   50.8173 N.am    1  ZINC000826324849   -1.0100
     12 S12        -3.9847    4.4306   51.0033 S.o2    1  ZINC000826324849    2.7100
     13 O13        -3.0043    3.6734   50.3070 O.2     1  ZINC000826324849   -0.9300
     14 O14        -4.2549    5.7971   50.7229 O.2     1  ZINC000826324849   -0.9300
     15 C15        -3.5572    4.3479   52.7107 C.ar    1  ZINC000826324849   -0.5800
     16 C16        -4.5164    4.0232   53.6482 C.ar    1  ZINC000826324849   -0.0400
     17 C17        -4.1835    3.9577   54.9895 C.ar    1  ZINC000826324849   -0.0800
     18 C18        -2.8890    4.2172   55.3996 C.ar    1  ZINC000826324849   -0.1100
     19 C19        -1.9192    4.5436   54.4693 C.ar    1  ZINC000826324849    0.1300
     20 F20        -0.6542    4.7969   54.8701 F       1  ZINC000826324849   -0.1100
     21 C21        -2.2493    4.6048   53.1153 C.ar    1  ZINC000826324849    0.0500
     22 C22        -1.2136    4.9541   52.1110 C.2     1  ZINC000826324849    0.1800
     23 N23        -0.3205    4.1395   51.5851 N.2     1  ZINC000826324849   -0.2600
     24 N24         0.3946    4.8202   50.7567 N.pl3   1  ZINC000826324849   -0.2200
     25 N25        -0.0170    6.0398   50.7411 N.2     1  ZINC000826324849   -0.0200
     26 N26        -1.0081    6.1579   51.5580 N.2     1  ZINC000826324849   -0.2600
     27 N27        -3.3114    1.2862   50.1611 N.2     1  ZINC000826324849   -0.3800
     28 O28        -2.2884    1.1243   49.5297 O.3     1  ZINC000826324849    0.0900
     29 H29        -0.4405    1.2520   47.6113 H       1  ZINC000826324849    0.1000
     30 H30        -1.7039    1.4202   46.3688 H       1  ZINC000826324849    0.1100
     31 H31        -1.0094    2.8696   47.1339 H       1  ZINC000826324849    0.1100
     32 H32        -6.3896    0.4796   50.0408 H       1  ZINC000826324849    0.1200
     33 H33        -5.5120    0.9760   51.5087 H       1  ZINC000826324849    0.0600
     34 H34        -8.2078    3.1049   52.6552 H       1  ZINC000826324849    0.1200
     35 H35        -6.5732    2.5083   53.0347 H       1  ZINC000826324849    0.0600
     36 H36        -7.3479    4.4652   50.8218 H       1  ZINC000826324849    0.0900
     37 H37        -6.3695    4.8136   52.2705 H       1  ZINC000826324849    0.1100
     38 H38        -5.5296    3.8200   53.3342 H       1  ZINC000826324849    0.1400
     39 H39        -4.9379    3.7030   55.7191 H       1  ZINC000826324849    0.1500
     40 H40        -2.6348    4.1653   56.4480 H       1  ZINC000826324849    0.1500
     41 H41         1.1281    4.4688   50.2283 H       1  ZINC000826324849    0.4800
@<TRIPOS>BOND
     1     1     2    1
     2     1    29    1
     3     1    30    1
     4     1    31    1
     5     2    28    1
     6     2     3    2
     7     3     4    1
     8     4     5    1
     9     4    27    2
    10     5     6    1
    11     5    11    1
    12     5     7    1
    13     7     8    1
    14     7    32    1
    15     7    33    1
    16     8     9    1
    17     9    10    1
    18     9    34    1
    19     9    35    1
    20    10    11    1
    21    10    36    1
    22    10    37    1
    23    11    12   am
    24    12    13    2
    25    12    14    2
    26    12    15    1
    27    15    21   ar
    28    15    16   ar
    29    16    17   ar
    30    16    38    1
    31    17    18   ar
    32    17    39    1
    33    18    19   ar
    34    18    40    1
    35    19    20    1
    36    19    21   ar
    37    21    22    1
    38    22    26    1
    39    22    23    2
    40    23    24    1
    41    24    25    1
    42    24    41    1
    43    25    26    2
    44    27    28    1
@<TRIPOS>SUBSTRUCTURE
     1 ZINC000826324849        1 TEMP              0 ****  ****    0 ROOT


##########                                Name:    ZINC001074839487
##########                DOCK_Rotatable_Bonds:                   7
##########                         Heavy_Atoms:                  25
##########                    Molecular_Weight:             344.454
##########                DOCK_Rotatable_Bonds:                   7
##########                       Formal_Charge:          -0.0500005
##########                     HBond_Acceptors:                   5
##########                        HBond_Donors:                   1
##########                         Heavy_Atoms:                  25
##########                          Grid_Score:          -29.090626
##########                     Grid_vdw_energy:          -28.626783
##########                      Grid_es_energy:           -0.463843
##########           Internal_energy_repulsive:           90.697823

@<TRIPOS>MOLECULE
ZINC001074839487
 53 55 1 0 0
SMALL
USER_CHARGES


@<TRIPOS>ATOM
      1 C1          0.4932    2.6904   50.3337 C.3     1  ZINC001074839487   -0.1500
      2 C2          0.5921    1.3062   49.6894 C.3     1  ZINC001074839487   -0.1300
      3 C3         -0.4846    1.1674   48.6113 C.3     1  ZINC001074839487   -0.1100
      4 C4         -1.7799    0.6580   49.2466 C.3     1  ZINC001074839487   -0.1400
      5 C5         -2.8604    1.6960   49.0854 C.2     1  ZINC001074839487    0.5100
      6 O6         -3.1546    2.0986   47.9798 O.2     1  ZINC001074839487   -0.5400
      7 N7         -3.5001    2.1769   50.1699 N.am    1  ZINC001074839487   -0.7300
      8 C8         -4.5518    3.1846   50.0131 C.3     1  ZINC001074839487    0.1400
      9 H9         -4.4339    3.6860   49.0524 H       1  ZINC001074839487    0.0900
     10 C10        -5.9218    2.5048   50.0688 C.3     1  ZINC001074839487   -0.1500
     11 C11        -6.0701    1.7727   51.4062 C.3     1  ZINC001074839487    0.0700
     12 N12        -5.8248    2.7260   52.4969 N.am    1  ZINC001074839487   -0.6000
     13 C13        -6.7282    2.8875   53.4840 C.2     1  ZINC001074839487    0.5600
     14 O14        -6.5134    3.6792   54.3809 O.2     1  ZINC001074839487   -0.5200
     15 C15        -7.9803    2.1013   53.4760 C.ar    1  ZINC001074839487   -0.1300
     16 C16        -9.0927    2.5625   52.7706 C.ar    1  ZINC001074839487   -0.1000
     17 C17       -10.2593    1.8246   52.7666 C.ar    1  ZINC001074839487   -0.1000
     18 C18       -10.3268    0.6318   53.4591 C.ar    1  ZINC001074839487   -0.1100
     19 C19       -11.4335   -0.3808   53.6436 C.3     1  ZINC001074839487    0.0900
     20 O20       -11.0579   -1.1744   54.7839 O.3     1  ZINC001074839487   -0.3600
     21 C21        -9.6190   -1.1437   54.8009 C.3     1  ZINC001074839487    0.0900
     22 C22        -9.2240    0.1678   54.1627 C.ar    1  ZINC001074839487   -0.1400
     23 C23        -8.0530    0.8914   54.1698 C.ar    1  ZINC001074839487   -0.0400
     24 C24        -4.5763    3.5005   52.4909 C.3     1  ZINC001074839487    0.1500
     25 H25        -3.7293    2.8293   52.6338 H       1  ZINC001074839487    0.0700
     26 C26        -4.6095    4.5360   53.6167 C.3     1  ZINC001074839487   -0.1400
     27 C27        -4.4446    4.2132   51.1413 C.3     1  ZINC001074839487   -0.1400
     28 H28         0.6403    3.4567   49.5726 H       1  ZINC001074839487    0.0500
     29 H29         1.2602    2.7893   51.1018 H       1  ZINC001074839487    0.0500
     30 H30        -0.4913    2.8114   50.7856 H       1  ZINC001074839487    0.0500
     31 H31         1.5765    1.1852   49.2376 H       1  ZINC001074839487    0.0600
     32 H32         0.4450    0.5399   50.4505 H       1  ZINC001074839487    0.0600
     33 H33        -0.6637    2.1384   48.1495 H       1  ZINC001074839487    0.0700
     34 H34        -0.1497    0.4603   47.8523 H       1  ZINC001074839487    0.0700
     35 H35        -2.0868   -0.2653   48.7554 H       1  ZINC001074839487    0.0900
     36 H36        -1.6141    0.4678   50.3069 H       1  ZINC001074839487    0.0900
     37 H37        -3.2640    1.8558   51.0542 H       1  ZINC001074839487    0.4000
     38 H38        -6.7052    3.2570   49.9770 H       1  ZINC001074839487    0.0800
     39 H39        -6.0062    1.7892   49.2509 H       1  ZINC001074839487    0.0800
     40 H40        -7.0794    1.3704   51.4926 H       1  ZINC001074839487    0.1200
     41 H41        -5.3450    0.9606   51.4607 H       1  ZINC001074839487    0.0700
     42 H42        -9.0407    3.4952   52.2283 H       1  ZINC001074839487    0.1500
     43 H43       -11.1204    2.1806   52.2206 H       1  ZINC001074839487    0.1400
     44 H44       -12.3791    0.1268   53.8343 H       1  ZINC001074839487    0.1000
     45 H45       -11.5170   -1.0113   52.7583 H       1  ZINC001074839487    0.0800
     46 H46        -9.2545   -1.1867   55.8272 H       1  ZINC001074839487    0.1000
     47 H47        -9.2188   -1.9776   54.2243 H       1  ZINC001074839487    0.0800
     48 H48        -7.1942    0.5267   54.7138 H       1  ZINC001074839487    0.1400
     49 H49        -4.5955    4.0260   54.5800 H       1  ZINC001074839487    0.0800
     50 H50        -3.7387    5.1869   53.5375 H       1  ZINC001074839487    0.0500
     51 H51        -5.5179    5.1328   53.5347 H       1  ZINC001074839487    0.0700
     52 H52        -3.4778    4.7135   51.0868 H       1  ZINC001074839487    0.0900
     53 H53        -5.2420    4.9493   51.0393 H       1  ZINC001074839487    0.0900
@<TRIPOS>BOND
     1     1     2    1
     2     1    28    1
     3     1    29    1
     4     1    30    1
     5     2     3    1
     6     2    31    1
     7     2    32    1
     8     3     4    1
     9     3    33    1
    10     3    34    1
    11     4     5    1
    12     4    35    1
    13     4    36    1
    14     5     6    2
    15     5     7   am
    16     7     8    1
    17     7    37    1
    18     8     9    1
    19     8    27    1
    20     8    10    1
    21    10    11    1
    22    10    38    1
    23    10    39    1
    24    11    12    1
    25    11    40    1
    26    11    41    1
    27    12    13   am
    28    12    24    1
    29    13    14    2
    30    13    15    1
    31    15    23   ar
    32    15    16   ar
    33    16    17   ar
    34    16    42    1
    35    17    18   ar
    36    17    43    1
    37    18    22   ar
    38    18    19    1
    39    19    20    1
    40    19    44    1
    41    19    45    1
    42    20    21    1
    43    21    22    1
    44    21    46    1
    45    21    47    1
    46    22    23   ar
    47    23    48    1
    48    24    25    1
    49    24    26    1
    50    24    27    1
    51    26    49    1
    52    26    50    1
    53    26    51    1
    54    27    52    1
    55    27    53    1
@<TRIPOS>SUBSTRUCTURE
     1 ZINC001074839487        1 TEMP              0 ****  ****    0 ROOT


##########                                Name:    ZINC000012087388
##########                DOCK_Rotatable_Bonds:                   5
##########                         Heavy_Atoms:                  29
##########                    Molecular_Weight:              418.52
##########                DOCK_Rotatable_Bonds:                   5
##########                       Formal_Charge:          -0.0499999
##########                     HBond_Acceptors:                  10
##########                        HBond_Donors:                   1
##########                         Heavy_Atoms:                  29
##########                          Grid_Score:          -29.079657
##########                     Grid_vdw_energy:          -30.327002
##########                      Grid_es_energy:            1.247345
##########           Internal_energy_repulsive:           32.997173

@<TRIPOS>MOLECULE
ZINC000012087388
 55 58 1 0 0
SMALL
USER_CHARGES


@<TRIPOS>ATOM
      1 C1          1.7591    4.7910   49.8282 C.3     1  <0>        -0.6600
      2 S2          1.3747    3.9046   51.3635 S.o2    1  <0>         2.5100
      3 O3          1.7902    2.5488   51.2738 O.2     1  <0>        -0.9400
      4 O4          1.7057    4.6991   52.4941 O.2     1  <0>        -0.9300
      5 C5         -0.3849    3.8189   51.3928 C.ar    1  <0>        -0.8400
      6 C6         -1.1139    4.5467   52.3199 C.ar    1  <0>         0.3000
      7 N7         -2.4339    4.4601   52.3146 N.ar    1  <0>        -0.5800
      8 C8         -3.0585    3.6893   51.4368 C.ar    1  <0>         0.6000
      9 N9         -4.4408    3.6223   51.4595 N.pl3   1  <0>        -0.5700
     10 C10        -5.1931    3.2660   50.2488 C.3     1  <0>         0.1200
     11 C11        -6.1240    2.0936   50.5738 C.3     1  <0>        -0.1400
     12 C12        -7.0007    2.4608   51.7733 C.3     1  <0>        -0.1200
     13 C13        -6.1147    2.7265   52.9925 C.3     1  <0>        -0.1400
     14 C14        -5.1834    3.9003   52.6964 C.3     1  <0>         0.1200
     15 N15        -2.3915    2.9811   50.5372 N.ar    1  <0>        -0.5700
     16 C16        -1.0706    3.0264   50.4852 C.ar    1  <0>         0.3200
     17 C17        -0.3196    2.2179   49.4590 C.3     1  <0>        -0.0700
     18 C18        -0.4229    0.7309   49.8060 C.3     1  <0>        -0.1300
     19 C19         0.3703   -0.0850   48.7804 C.3     1  <0>         0.0900
     20 N20        -0.1082    0.2549   47.4336 N.am    1  <0>        -0.6100
     21 C21        -0.5138   -0.7104   46.5850 C.2     1  <0>         0.5900
     22 O22        -0.4858   -1.8760   46.9316 O.2     1  <0>        -0.5100
     23 C23        -0.9905   -0.3543   45.2390 C.2     1  <0>        -0.0400
     24 C24        -0.2354    0.1605   44.1996 C.2     1  <0>        -0.1500
     25 C25        -1.1304    0.3299   43.1407 C.2     1  <0>         0.0000
     26 N26        -2.3114   -0.0605   43.5471 N.2     1  <0>        -0.2700
     27 N27        -2.2656   -0.4709   44.7633 N.pl3   1  <0>        -0.3900
     28 C28        -0.1364    1.6672   47.0294 C.3     1  <0>         0.1100
     29 C29        -0.9239    2.4635   48.0745 C.3     1  <0>        -0.1200
     30 H30         1.3647    4.2339   48.9784 H       1  <0>         0.1400
     31 H31         1.3039    5.7810   49.8564 H       1  <0>         0.1300
     32 H32         2.8399    4.8908   49.7271 H       1  <0>         0.1400
     33 H33        -0.6103    5.1766   53.0382 H       1  <0>         0.1900
     34 H34        -5.7837    4.1213   49.9206 H       1  <0>         0.0700
     35 H35        -4.4994    2.9742   49.4603 H       1  <0>         0.1000
     36 H36        -6.7567    1.8816   49.7120 H       1  <0>         0.0800
     37 H37        -5.5289    1.2124   50.8143 H       1  <0>         0.0700
     38 H38        -7.5771    3.3563   51.5411 H       1  <0>         0.0700
     39 H39        -7.6811    1.6376   51.9913 H       1  <0>         0.0700
     40 H40        -6.7409    2.9652   53.8522 H       1  <0>         0.0800
     41 H41        -5.5198    1.8395   53.2102 H       1  <0>         0.0700
     42 H42        -4.4844    4.0294   53.5227 H       1  <0>         0.1000
     43 H43        -5.7710    4.8091   52.5666 H       1  <0>         0.0700
     44 H44         0.7283    2.5179   49.4562 H       1  <0>         0.1000
     45 H45        -0.0135    0.5605   50.8017 H       1  <0>         0.0800
     46 H46        -1.4687    0.4242   49.7846 H       1  <0>         0.0900
     47 H47         1.4302    0.1554   48.8632 H       1  <0>         0.0800
     48 H48         0.2194   -1.1488   48.9642 H       1  <0>         0.0900
     49 H49         0.8212    0.3838   44.2060 H       1  <0>         0.1700
     50 H50        -0.8903    0.7151   42.1607 H       1  <0>         0.1900
     51 H51        -3.0224   -0.8061   45.2691 H       1  <0>         0.4400
     52 H52         0.8822    2.0505   46.9693 H       1  <0>         0.0800
     53 H53        -0.6216    1.7596   46.0577 H       1  <0>         0.1000
     54 H54        -1.9649    2.1405   48.0695 H       1  <0>         0.0800
     55 H55        -0.8712    3.5262   47.8379 H       1  <0>         0.0900
@<TRIPOS>BOND
     1     1     2    1
     2     1    30    1
     3     1    31    1
     4     1    32    1
     5     2     3    2
     6     2     4    2
     7     2     5    1
     8     5    16   ar
     9     5     6   ar
    10     6     7   ar
    11     6    33    1
    12     7     8   ar
    13     8     9    1
    14     8    15   ar
    15     9    14    1
    16     9    10    1
    17    10    11    1
    18    10    34    1
    19    10    35    1
    20    11    12    1
    21    11    36    1
    22    11    37    1
    23    12    13    1
    24    12    38    1
    25    12    39    1
    26    13    14    1
    27    13    40    1
    28    13    41    1
    29    14    42    1
    30    14    43    1
    31    15    16   ar
    32    16    17    1
    33    17    29    1
    34    17    18    1
    35    17    44    1
    36    18    19    1
    37    18    45    1
    38    18    46    1
    39    19    20    1
    40    19    47    1
    41    19    48    1
    42    20    21   am
    43    20    28    1
    44    21    22    2
    45    21    23    1
    46    23    27    1
    47    23    24    2
    48    24    25    1
    49    24    49    1
    50    25    26    2
    51    25    50    1
    52    26    27    1
    53    27    51    1
    54    28    29    1
    55    28    52    1
    56    28    53    1
    57    29    54    1
    58    29    55    1
@<TRIPOS>SUBSTRUCTURE
     1 <0>         1 TEMP              0 ****  ****    0 ROOT


##########                                Name:    ZINC000302023461
##########                DOCK_Rotatable_Bonds:                   3
##########                         Heavy_Atoms:                  25
##########                    Molecular_Weight:             356.362
##########                DOCK_Rotatable_Bonds:                   3
##########                       Formal_Charge:        -2.08616e-07
##########                     HBond_Acceptors:                   9
##########                        HBond_Donors:                   1
##########                         Heavy_Atoms:                  25
##########                          Grid_Score:          -29.079399
##########                     Grid_vdw_energy:          -29.502338
##########                      Grid_es_energy:            0.422940
##########           Internal_energy_repulsive:           20.868452

@<TRIPOS>MOLECULE
ZINC000302023461
 37 40 1 0 0
SMALL
USER_CHARGES


@<TRIPOS>ATOM
      1 O1         -1.5121    0.1803   42.5264 O.2     1  ZINC000302023461   -0.1600
      2 N2         -1.3505    0.1039   43.7313 N.pl3   1  ZINC000302023461    0.0200
      3 O3         -2.2310   -0.3564   44.4358 O.2     1  ZINC000302023461   -0.1300
      4 C4         -0.0816    0.5649   44.3385 C.ar    1  ZINC000302023461    0.0000
      5 C5          0.9170    1.0867   43.5408 C.ar    1  ZINC000302023461   -0.0600
      6 C6          2.1030    1.5177   44.1074 C.ar    1  ZINC000302023461   -0.0900
      7 C7          2.2928    1.4279   45.4742 C.ar    1  ZINC000302023461   -0.0800
      8 C8          1.2983    0.9070   46.2784 C.ar    1  ZINC000302023461   -0.0500
      9 C9          0.1036    0.4780   45.7133 C.ar    1  ZINC000302023461   -0.1100
     10 S10        -1.1683   -0.1868   46.7355 S.3     1  ZINC000302023461    0.1900
     11 C11        -1.5425    1.1489   47.8218 C.2     1  ZINC000302023461    0.2100
     12 N12        -0.9031    2.2950   47.8693 N.2     1  ZINC000302023461   -0.3200
     13 N13        -1.5202    3.0673   48.8667 N.pl3   1  ZINC000302023461   -0.4700
     14 C14        -2.5220    2.3110   49.3696 C.2     1  ZINC000302023461    0.3500
     15 C15        -3.4542    2.7070   50.4471 C.ar    1  ZINC000302023461   -0.0400
     16 C16        -3.1183    3.7454   51.3162 C.ar    1  ZINC000302023461   -0.0900
     17 C17        -3.9886    4.1114   52.3212 C.ar    1  ZINC000302023461   -0.1100
     18 C18        -5.2001    3.4502   52.4730 C.ar    1  ZINC000302023461    0.0800
     19 O19        -6.0398    3.8225   53.4770 O.3     1  ZINC000302023461   -0.3000
     20 C20        -7.4011    3.3921   53.3712 C.3     1  ZINC000302023461    0.0200
     21 C21        -7.4073    1.9053   52.9912 C.3     1  ZINC000302023461    0.0200
     22 O22        -6.7283    1.7601   51.7391 O.3     1  ZINC000302023461   -0.3000
     23 C23        -5.5424    2.4155   51.6070 C.ar    1  ZINC000302023461    0.0500
     24 C24        -4.6748    2.0469   50.5939 C.ar    1  ZINC000302023461   -0.0500
     25 N25        -2.5250    1.1609   48.7251 N.2     1  ZINC000302023461   -0.5000
     26 H26         0.7721    1.1583   42.4729 H       1  ZINC000302023461    0.1600
     27 H27         2.8827    1.9249   43.4809 H       1  ZINC000302023461    0.1500
     28 H28         3.2201    1.7654   45.9132 H       1  ZINC000302023461    0.1500
     29 H29         1.4475    0.8366   47.3457 H       1  ZINC000302023461    0.1600
     30 H30        -1.2760    3.9652   49.1407 H       1  ZINC000302023461    0.4400
     31 H31        -2.1768    4.2621   51.2021 H       1  ZINC000302023461    0.1300
     32 H32        -3.7268    4.9155   52.9932 H       1  ZINC000302023461    0.1500
     33 H33        -7.9052    3.5291   54.3278 H       1  ZINC000302023461    0.1300
     34 H34        -7.9106    3.9706   52.6006 H       1  ZINC000302023461    0.0800
     35 H35        -6.8915    1.3276   53.7582 H       1  ZINC000302023461    0.0800
     36 H36        -8.4349    1.5548   52.8949 H       1  ZINC000302023461    0.1300
     37 H37        -4.9405    1.2459   49.9199 H       1  ZINC000302023461    0.1600
@<TRIPOS>BOND
     1     1     2    2
     2     2     3    2
     3     2     4    1
     4     4     9   ar
     5     4     5   ar
     6     5     6   ar
     7     5    26    1
     8     6     7   ar
     9     6    27    1
    10     7     8   ar
    11     7    28    1
    12     8     9   ar
    13     8    29    1
    14     9    10    1
    15    10    11    1
    16    11    25    1
    17    11    12    2
    18    12    13    1
    19    13    14    1
    20    13    30    1
    21    14    15    1
    22    14    25    2
    23    15    24   ar
    24    15    16   ar
    25    16    17   ar
    26    16    31    1
    27    17    18   ar
    28    17    32    1
    29    18    23   ar
    30    18    19    1
    31    19    20    1
    32    20    21    1
    33    20    33    1
    34    20    34    1
    35    21    22    1
    36    21    35    1
    37    21    36    1
    38    22    23    1
    39    23    24   ar
    40    24    37    1
@<TRIPOS>SUBSTRUCTURE
     1 ZINC000302023461        1 TEMP              0 ****  ****    0 ROOT


##########                                Name:    ZINC000507831344
##########                DOCK_Rotatable_Bonds:                   6
##########                         Heavy_Atoms:                  31
##########                    Molecular_Weight:              422.53
##########                DOCK_Rotatable_Bonds:                   6
##########                       Formal_Charge:          -0.0200002
##########                     HBond_Acceptors:                   8
##########                        HBond_Donors:                   2
##########                         Heavy_Atoms:                  31
##########                          Grid_Score:          -29.030354
##########                     Grid_vdw_energy:          -28.504211
##########                      Grid_es_energy:           -0.526142
##########           Internal_energy_repulsive:           23.317320

@<TRIPOS>MOLECULE
ZINC000507831344
 61 64 1 0 0
SMALL
USER_CHARGES


@<TRIPOS>ATOM
      1 C1         -8.5357   -0.7429   61.4403 C.3     1  ZINC000507831344   -0.1000
      2 C2         -8.8315    0.4824   60.6142 C.ar    1  ZINC000507831344   -0.0800
      3 C3         -8.7424    0.4350   59.2353 C.ar    1  ZINC000507831344   -0.0800
      4 C4         -9.0255    1.5924   58.5115 C.ar    1  ZINC000507831344    0.0900
      5 N5         -8.9484    1.5905   57.1118 N.am    1  ZINC000507831344   -0.6700
      6 C6         -7.7465    1.6234   56.5029 C.2     1  ZINC000507831344    0.5100
      7 O7         -6.7314    1.6548   57.1661 O.2     1  ZINC000507831344   -0.5100
      8 C8         -7.6637    1.6213   54.9981 C.3     1  ZINC000507831344   -0.1400
      9 C9         -7.5611    3.0612   54.4910 C.3     1  ZINC000507831344   -0.0500
     10 C10        -6.3629    3.1909   53.5863 C.2     1  ZINC000507831344   -0.2200
     11 C11        -6.4283    2.7672   52.2965 C.2     1  ZINC000507831344    0.2100
     12 C12        -7.6985    2.1630   51.7559 C.3     1  ZINC000507831344   -0.1400
     13 N13        -5.3339    2.8954   51.4999 N.pl3   1  ZINC000507831344   -0.3000
     14 N14        -5.1020    2.5581   50.1610 N.am    1  ZINC000507831344   -0.5100
     15 C15        -3.8360    2.8957   49.8491 C.2     1  ZINC000507831344    0.5500
     16 O16        -3.3025    2.7406   48.7626 O.2     1  ZINC000507831344   -0.5400
     17 C17        -3.2391    3.4527   50.9790 C.2     1  ZINC000507831344   -0.3500
     18 C18        -4.1830    3.4476   52.0036 C.2     1  ZINC000507831344    0.3500
     19 N19        -4.1284    3.8623   53.2747 N.2     1  ZINC000507831344   -0.4800
     20 C20        -5.1747    3.7541   54.0648 C.2     1  ZINC000507831344    0.2500
     21 C21        -5.0900    4.2284   55.4927 C.3     1  ZINC000507831344   -0.1200
     22 C22        -9.3846    2.7451   59.1927 C.ar    1  ZINC000507831344    0.0800
     23 N23        -9.4597    2.7547   60.5101 N.ar    1  ZINC000507831344   -0.4900
     24 C24        -9.2032    1.6735   61.2291 C.ar    1  ZINC000507831344    0.2800
     25 N25        -9.2961    1.7318   62.6170 N.3     1  ZINC000507831344   -0.4800
     26 C26        -8.4825    2.8305   63.1532 C.3     1  ZINC000507831344    0.0600
     27 C27        -8.4921    2.7747   64.6825 C.3     1  ZINC000507831344   -0.1200
     28 C28        -9.9343    2.8911   65.1836 C.3     1  ZINC000507831344   -0.1200
     29 C29       -10.7712    1.7639   64.5724 C.3     1  ZINC000507831344   -0.1100
     30 C30       -10.6955    1.8489   63.0463 C.3     1  ZINC000507831344    0.0900
     31 H31       -11.0980    2.8064   62.7155 H       1  ZINC000507831344    0.0600
     32 C32       -11.5141    0.7120   62.4312 C.3     1  ZINC000507831344   -0.1400
     33 H33        -9.4657   -1.2688   61.6560 H       1  ZINC000507831344    0.0700
     34 H34        -7.8659   -1.4012   60.8869 H       1  ZINC000507831344    0.0600
     35 H35        -8.0615   -0.4448   62.3754 H       1  ZINC000507831344    0.0800
     36 H36        -8.4598   -0.4770   58.7308 H       1  ZINC000507831344    0.1500
     37 H37        -9.7602    1.5655   56.5813 H       1  ZINC000507831344    0.4100
     38 H38        -6.7828    1.0617   54.6836 H       1  ZINC000507831344    0.1000
     39 H39        -8.5577    1.1536   54.5857 H       1  ZINC000507831344    0.1000
     40 H40        -8.4643    3.3164   53.9365 H       1  ZINC000507831344    0.0900
     41 H41        -7.4516    3.7379   55.3384 H       1  ZINC000507831344    0.1000
     42 H42        -8.3248    2.9497   51.3354 H       1  ZINC000507831344    0.1000
     43 H43        -7.4542    1.4386   50.9787 H       1  ZINC000507831344    0.0800
     44 H44        -8.2353    1.6634   52.5624 H       1  ZINC000507831344    0.1100
     45 H45        -5.7443    2.1497   49.5597 H       1  ZINC000507831344    0.4400
     46 H46        -2.2264    3.8216   51.0478 H       1  ZINC000507831344    0.1700
     47 H47        -4.0934    4.6263   55.6849 H       1  ZINC000507831344    0.0900
     48 H48        -5.8316    5.0093   55.6609 H       1  ZINC000507831344    0.1000
     49 H49        -5.2834    3.3927   56.1653 H       1  ZINC000507831344    0.0900
     50 H50        -9.6050    3.6457   58.6389 H       1  ZINC000507831344    0.1600
     51 H51        -7.4585    2.7335   62.7926 H       1  ZINC000507831344    0.0700
     52 H52        -8.8953    3.7833   62.8218 H       1  ZINC000507831344    0.0500
     53 H53        -8.0666    1.8278   65.0148 H       1  ZINC000507831344    0.0700
     54 H54        -7.9009    3.5995   65.0804 H       1  ZINC000507831344    0.0700
     55 H55        -9.9501    2.8084   66.2703 H       1  ZINC000507831344    0.0700
     56 H56       -10.3472    3.8545   64.8847 H       1  ZINC000507831344    0.0600
     57 H57       -10.3816    0.8010   64.9030 H       1  ZINC000507831344    0.0700
     58 H58       -11.8083    1.8664   64.8916 H       1  ZINC000507831344    0.0700
     59 H59       -12.5671    0.8480   62.6773 H       1  ZINC000507831344    0.0600
     60 H60       -11.3900    0.7196   61.3483 H       1  ZINC000507831344    0.0500
     61 H61       -11.1680   -0.2417   62.8298 H       1  ZINC000507831344    0.0600
@<TRIPOS>BOND
     1     1     2    1
     2     1    33    1
     3     1    34    1
     4     1    35    1
     5     2    24   ar
     6     2     3   ar
     7     3     4   ar
     8     3    36    1
     9     4     5    1
    10     4    22   ar
    11     5     6   am
    12     5    37    1
    13     6     7    2
    14     6     8    1
    15     8     9    1
    16     8    38    1
    17     8    39    1
    18     9    10    1
    19     9    40    1
    20     9    41    1
    21    10    20    1
    22    10    11    2
    23    11    12    1
    24    11    13    1
    25    12    42    1
    26    12    43    1
    27    12    44    1
    28    13    18    1
    29    13    14    1
    30    14    15   am
    31    14    45    1
    32    15    16    2
    33    15    17    1
    34    17    18    2
    35    17    46    1
    36    18    19    1
    37    19    20    2
    38    20    21    1
    39    21    47    1
    40    21    48    1
    41    21    49    1
    42    22    23   ar
    43    22    50    1
    44    23    24   ar
    45    24    25    1
    46    25    30    1
    47    25    26    1
    48    26    27    1
    49    26    51    1
    50    26    52    1
    51    27    28    1
    52    27    53    1
    53    27    54    1
    54    28    29    1
    55    28    55    1
    56    28    56    1
    57    29    30    1
    58    29    57    1
    59    29    58    1
    60    30    31    1
    61    30    32    1
    62    32    59    1
    63    32    60    1
    64    32    61    1
@<TRIPOS>SUBSTRUCTURE
     1 ZINC000507831344        1 TEMP              0 ****  ****    0 ROOT


##########                                Name:    ZINC000163855860
##########                DOCK_Rotatable_Bonds:                   6
##########                         Heavy_Atoms:                  28
##########                    Molecular_Weight:             398.483
##########                DOCK_Rotatable_Bonds:                   6
##########                       Formal_Charge:          -0.0100004
##########                     HBond_Acceptors:                   7
##########                        HBond_Donors:                   1
##########                         Heavy_Atoms:                  28
##########                          Grid_Score:          -28.987186
##########                     Grid_vdw_energy:          -27.973085
##########                      Grid_es_energy:           -1.014101
##########           Internal_energy_repulsive:           14.521356

@<TRIPOS>MOLECULE
ZINC000163855860
 50 53 1 0 0
SMALL
USER_CHARGES


@<TRIPOS>ATOM
      1 C1         -3.8266    2.2471   49.2447 C.3     1  ZINC000163855860   -0.1300
      2 C2         -3.1872    2.9276   50.4276 C.ar    1  ZINC000163855860   -0.0600
      3 C3         -1.8347    2.7590   50.6794 C.ar    1  ZINC000163855860    0.1400
      4 N4         -1.0604    1.9562   49.8342 N.am    1  ZINC000163855860   -0.6700
      5 C5         -0.2195    2.5254   48.9479 C.2     1  ZINC000163855860    0.5100
      6 O6         -0.1340    3.7335   48.8829 O.2     1  ZINC000163855860   -0.5100
      7 C7          0.6143    1.6609   48.0378 C.3     1  ZINC000163855860   -0.1300
      8 C8          0.1001    1.7872   46.6023 C.3     1  ZINC000163855860   -0.1100
      9 H9          0.0564    2.8320   46.2949 H       1  ZINC000163855860    0.1100
     10 C10         0.9744    0.9632   45.6298 C.3     1  ZINC000163855860    0.0600
     11 O11         0.0361    0.4635   44.6315 O.3     1  ZINC000163855860   -0.3500
     12 C12        -1.1701    0.2836   45.1884 C.2     1  ZINC000163855860    0.4800
     13 O13        -2.0387   -0.4316   44.7483 O.2     1  ZINC000163855860   -0.4500
     14 C14        -1.2806    1.1108   46.4508 C.3     1  ZINC000163855860   -0.1800
     15 C15        -1.2463    3.3919   51.7680 C.ar    1  ZINC000163855860   -0.1100
     16 C16        -2.0065    4.1866   52.6052 C.ar    1  ZINC000163855860   -0.1100
     17 C17        -3.3551    4.3571   52.3658 C.ar    1  ZINC000163855860   -0.1000
     18 C18        -3.9556    3.7254   51.2755 C.ar    1  ZINC000163855860   -0.1100
     19 C19        -5.4000    3.9067   51.0165 C.2     1  ZINC000163855860    0.5700
     20 O20        -5.7867    4.8628   50.3733 O.2     1  ZINC000163855860   -0.5300
     21 N21        -6.2877    3.0119   51.4935 N.am    1  ZINC000163855860   -0.6100
     22 C22        -5.8411    1.8481   52.2739 C.3     1  ZINC000163855860    0.1200
     23 C23        -6.3930    1.9837   53.7017 C.3     1  ZINC000163855860   -0.0600
     24 C24        -7.8525    2.3797   53.6318 C.2     1  ZINC000163855860   -0.1700
     25 C25        -8.4598    2.9111   52.5538 C.2     1  ZINC000163855860   -0.1300
     26 C26        -9.8069    3.1968   52.7520 C.2     1  ZINC000163855860   -0.1200
     27 C27       -10.2865    2.9021   53.9562 C.2     1  ZINC000163855860   -0.2100
     28 S28        -9.0073    2.2201   54.9492 S.3     1  ZINC000163855860    0.1100
     29 C29        -7.7272    3.1700   51.2423 C.3     1  ZINC000163855860    0.1700
     30 H30        -4.2707    1.3043   49.5643 H       1  ZINC000163855860    0.0700
     31 H31        -4.6015    2.8916   48.8300 H       1  ZINC000163855860    0.0900
     32 H32        -3.0699    2.0531   48.4845 H       1  ZINC000163855860    0.0700
     33 H33        -1.1287    0.9899   49.8862 H       1  ZINC000163855860    0.4100
     34 H34         0.5437    0.6216   48.3589 H       1  ZINC000163855860    0.1100
     35 H35         1.6541    1.9847   48.0811 H       1  ZINC000163855860    0.1100
     36 H36         1.4495    0.1341   46.1544 H       1  ZINC000163855860    0.0800
     37 H37         1.7257    1.5990   45.1614 H       1  ZINC000163855860    0.1200
     38 H38        -2.0620    1.8632   46.3442 H       1  ZINC000163855860    0.1200
     39 H39        -1.4850    0.4692   47.3080 H       1  ZINC000163855860    0.1200
     40 H40        -0.1915    3.2626   51.9602 H       1  ZINC000163855860    0.1500
     41 H41        -1.5436    4.6761   53.4492 H       1  ZINC000163855860    0.1300
     42 H42        -3.9457    4.9788   53.0223 H       1  ZINC000163855860    0.1300
     43 H43        -6.2207    0.9339   51.8177 H       1  ZINC000163855860    0.0800
     44 H44        -4.7516    1.8218   52.3010 H       1  ZINC000163855860    0.1000
     45 H45        -5.8331    2.7486   54.2399 H       1  ZINC000163855860    0.0900
     46 H46        -6.2986    1.0300   54.2210 H       1  ZINC000163855860    0.0900
     47 H47       -10.4229    3.6299   51.9778 H       1  ZINC000163855860    0.1400
     48 H48       -11.3065    3.0576   54.2753 H       1  ZINC000163855860    0.1700
     49 H49        -7.9327    4.1838   50.8985 H       1  ZINC000163855860    0.1000
     50 H50        -8.0517    2.4521   50.4891 H       1  ZINC000163855860    0.0900
@<TRIPOS>BOND
     1     1     2    1
     2     1    30    1
     3     1    31    1
     4     1    32    1
     5     2    18   ar
     6     2     3   ar
     7     3     4    1
     8     3    15   ar
     9     4     5   am
    10     4    33    1
    11     5     6    2
    12     5     7    1
    13     7     8    1
    14     7    34    1
    15     7    35    1
    16     8     9    1
    17     8    14    1
    18     8    10    1
    19    10    11    1
    20    10    36    1
    21    10    37    1
    22    11    12    1
    23    12    13    2
    24    12    14    1
    25    14    38    1
    26    14    39    1
    27    15    16   ar
    28    15    40    1
    29    16    17   ar
    30    16    41    1
    31    17    18   ar
    32    17    42    1
    33    18    19    1
    34    19    20    2
    35    19    21   am
    36    21    29    1
    37    21    22    1
    38    22    23    1
    39    22    43    1
    40    22    44    1
    41    23    24    1
    42    23    45    1
    43    23    46    1
    44    24    28    1
    45    24    25    2
    46    25    26    1
    47    25    29    1
    48    26    27    2
    49    26    47    1
    50    27    28    1
    51    27    48    1
    52    29    49    1
    53    29    50    1
@<TRIPOS>SUBSTRUCTURE
     1 ZINC000163855860        1 TEMP              0 ****  ****    0 ROOT


##########                                Name:    ZINC000057429281
##########                DOCK_Rotatable_Bonds:                  10
##########                         Heavy_Atoms:                  23
##########                    Molecular_Weight:             331.295
##########                DOCK_Rotatable_Bonds:                  10
##########                       Formal_Charge:          -0.0100002
##########                     HBond_Acceptors:                   9
##########                        HBond_Donors:                   5
##########                         Heavy_Atoms:                  23
##########                          Grid_Score:          -28.960592
##########                     Grid_vdw_energy:          -29.758823
##########                      Grid_es_energy:            0.798230
##########           Internal_energy_repulsive:            9.127117

@<TRIPOS>MOLECULE
ZINC000057429281
 39 39 1 0 0
SMALL
USER_CHARGES


@<TRIPOS>ATOM
      1 C1         -1.0490   -0.0590   48.9051 C.3     1  ZINC000057429281   -0.1500
      2 C2         -1.6797    1.1846   48.2754 C.3     1  ZINC000057429281   -0.0400
      3 H3         -2.4642    0.8824   47.5816 H       1  ZINC000057429281    0.0900
      4 C4         -0.6079    1.9737   47.5210 C.3     1  ZINC000057429281   -0.1300
      5 C5         -0.7922    1.7800   46.0379 C.2     1  ZINC000057429281    0.5200
      6 O6         -1.6271    2.4262   45.4412 O.2     1  ZINC000057429281   -0.5300
      7 N7         -0.0291    0.8888   45.3746 N.am    1  ZINC000057429281   -0.7000
      8 C8         -0.2095    0.6993   43.9332 C.3     1  ZINC000057429281    0.1100
      9 C9          1.1216    0.3928   43.2964 C.2     1  ZINC000057429281    0.5200
     10 N10         2.1754    0.0568   44.0663 N.am    1  ZINC000057429281   -0.8500
     11 O11         1.2444    0.4488   42.0912 O.2     1  ZINC000057429281   -0.5100
     12 C12        -1.1576   -0.4470   43.6919 C.2     1  ZINC000057429281    0.5300
     13 N13        -1.8351   -0.9896   44.7230 N.am    1  ZINC000057429281   -0.8400
     14 O14        -1.3109   -0.8813   42.5700 O.2     1  ZINC000057429281   -0.5100
     15 C15        -2.2722    2.0499   49.3576 C.ar    1  ZINC000057429281   -0.0500
     16 C16        -3.6372    2.2638   49.4016 C.ar    1  ZINC000057429281   -0.1200
     17 C17        -4.1808    3.0576   50.3943 C.ar    1  ZINC000057429281   -0.0700
     18 C18        -3.3594    3.6371   51.3432 C.ar    1  ZINC000057429281   -0.1900
     19 C19        -3.9519    4.5028   52.4252 C.3     1  ZINC000057429281    0.5100
     20 F20        -3.2146    4.3463   53.6037 F       1  ZINC000057429281   -0.1800
     21 F21        -3.9121    5.8425   52.0246 F       1  ZINC000057429281   -0.1800
     22 F22        -5.2792    4.1229   52.6516 F       1  ZINC000057429281   -0.1800
     23 C23        -1.9946    3.4221   51.2999 C.ar    1  ZINC000057429281   -0.0700
     24 C24        -1.4514    2.6252   50.3095 C.ar    1  ZINC000057429281   -0.1100
     25 H25        -1.8126   -0.6212   49.4426 H       1  ZINC000057429281    0.0600
     26 H26        -0.6205   -0.6850   48.1224 H       1  ZINC000057429281    0.0800
     27 H27        -0.2645    0.2431   49.5990 H       1  ZINC000057429281    0.0500
     28 H28        -0.6983    3.0325   47.7632 H       1  ZINC000057429281    0.1000
     29 H29         0.3795    1.6170   47.8140 H       1  ZINC000057429281    0.1000
     30 H30         0.6395    0.3728   45.8517 H       1  ZINC000057429281    0.4200
     31 H31        -0.6206    1.6090   43.4958 H       1  ZINC000057429281    0.1300
     32 H32         3.0322   -0.1405   43.6566 H       1  ZINC000057429281    0.4000
     33 H33         2.0771    0.0123   45.0303 H       1  ZINC000057429281    0.4100
     34 H34        -2.4453   -1.7274   44.5678 H       1  ZINC000057429281    0.4000
     35 H35        -1.7124   -0.6422   45.6203 H       1  ZINC000057429281    0.4100
     36 H36        -4.2790    1.8111   48.6603 H       1  ZINC000057429281    0.1400
     37 H37        -5.2471    3.2253   50.4283 H       1  ZINC000057429281    0.1400
     38 H38        -1.3528    3.8745   52.0415 H       1  ZINC000057429281    0.1400
     39 H39        -0.3851    2.4572   50.2758 H       1  ZINC000057429281    0.1400
@<TRIPOS>BOND
     1     1     2    1
     2     1    25    1
     3     1    26    1
     4     1    27    1
     5     2     3    1
     6     2     4    1
     7     2    15    1
     8     4     5    1
     9     4    28    1
    10     4    29    1
    11     5     6    2
    12     5     7   am
    13     7     8    1
    14     7    30    1
    15     8     9    1
    16     8    12    1
    17     8    31    1
    18     9    10   am
    19     9    11    2
    20    10    32    1
    21    10    33    1
    22    12    13   am
    23    12    14    2
    24    13    34    1
    25    13    35    1
    26    15    24   ar
    27    15    16   ar
    28    16    17   ar
    29    16    36    1
    30    17    18   ar
    31    17    37    1
    32    18    19    1
    33    18    23   ar
    34    19    20    1
    35    19    21    1
    36    19    22    1
    37    23    24   ar
    38    23    38    1
    39    24    39    1
@<TRIPOS>SUBSTRUCTURE
     1 ZINC000057429281        1 TEMP              0 ****  ****    0 ROOT


##########                                Name:    ZINC001098311495
##########                DOCK_Rotatable_Bonds:                   8
##########                         Heavy_Atoms:                  24
##########                    Molecular_Weight:             328.454
##########                DOCK_Rotatable_Bonds:                   8
##########                       Formal_Charge:          0.00999987
##########                     HBond_Acceptors:                   4
##########                        HBond_Donors:                   1
##########                         Heavy_Atoms:                  24
##########                          Grid_Score:          -28.947800
##########                     Grid_vdw_energy:          -28.848665
##########                      Grid_es_energy:           -0.099135
##########           Internal_energy_repulsive:           25.014444

@<TRIPOS>MOLECULE
ZINC001098311495
 52 54 1 0 0
SMALL
USER_CHARGES


@<TRIPOS>ATOM
      1 C1        -10.9090    0.3502   53.0033 C.3     1  ZINC001098311495   -0.1500
      2 C2        -10.2266   -0.9587   53.4059 C.3     1  ZINC001098311495    0.0500
      3 O3         -8.9776   -0.6702   54.0375 O.3     1  ZINC001098311495   -0.2800
      4 C4         -8.0335   -0.0547   53.2826 C.ar    1  ZINC001098311495    0.1900
      5 C5         -7.6320   -0.6126   52.0782 C.ar    1  ZINC001098311495   -0.2200
      6 C6         -6.6659    0.0117   51.3139 C.ar    1  ZINC001098311495   -0.0500
      7 C7         -6.0963    1.2005   51.7391 C.ar    1  ZINC001098311495   -0.1700
      8 C8         -6.4878    1.7723   52.9305 C.ar    1  ZINC001098311495   -0.0500
      9 C9         -7.4635    1.1513   53.7135 C.ar    1  ZINC001098311495   -0.1800
     10 C10        -7.8874    1.7579   54.9899 C.2     1  ZINC001098311495    0.5600
     11 O11        -7.9971    2.9653   55.0823 O.2     1  ZINC001098311495   -0.5200
     12 N12        -8.1528    0.9737   56.0534 N.am    1  ZINC001098311495   -0.7200
     13 C13        -8.5753    1.5759   57.3203 C.3     1  ZINC001098311495    0.1600
     14 H14        -8.8213    2.6285   57.1802 H       1  ZINC001098311495    0.1000
     15 C15        -7.4754    1.4083   58.3971 C.3     1  ZINC001098311495   -0.1200
     16 C16        -8.1725    0.5566   59.5005 C.3     1  ZINC001098311495    0.0500
     17 H17        -7.5038    0.0214   60.1746 H       1  ZINC001098311495    0.1100
     18 C18        -9.1968    1.5107   60.1859 C.3     1  ZINC001098311495   -0.1500
     19 C19       -10.3053    1.6788   59.1182 C.3     1  ZINC001098311495   -0.1500
     20 C20        -9.7901    0.8031   57.9169 C.3     1  ZINC001098311495    0.0400
     21 H21       -10.5532    0.4853   57.2064 H       1  ZINC001098311495    0.1200
     22 N22        -9.0896   -0.2998   58.6670 N.3     1  ZINC001098311495   -0.4900
     23 C23       -10.0328   -1.0411   59.5149 C.3     1  ZINC001098311495    0.0600
     24 C24        -9.8810   -2.5190   59.2619 C.2     1  ZINC001098311495   -0.1600
     25 C25       -10.7321   -3.1411   58.4841 C.2     1  ZINC001098311495   -0.1200
     26 C26       -10.5804   -4.6189   58.2310 C.3     1  ZINC001098311495   -0.1200
     27 C27       -11.8627   -2.3789   57.8425 C.3     1  ZINC001098311495   -0.1200
     28 H28       -11.0828    0.9574   53.8916 H       1  ZINC001098311495    0.0700
     29 H29       -10.2686    0.8955   52.3100 H       1  ZINC001098311495    0.0700
     30 H30       -11.8616    0.1301   52.5216 H       1  ZINC001098311495    0.0800
     31 H31       -10.0528   -1.5660   52.5176 H       1  ZINC001098311495    0.0600
     32 H32       -10.8669   -1.5040   54.0992 H       1  ZINC001098311495    0.0600
     33 H33        -8.0718   -1.5391   51.7398 H       1  ZINC001098311495    0.1300
     34 H34        -6.3531   -0.4292   50.3790 H       1  ZINC001098311495    0.1300
     35 H35        -5.3420    1.6817   51.1341 H       1  ZINC001098311495    0.1300
     36 H36        -6.0407    2.6992   53.2582 H       1  ZINC001098311495    0.1300
     37 H37        -8.0640    0.0105   55.9799 H       1  ZINC001098311495    0.4000
     38 H38        -7.1753    2.3784   58.7934 H       1  ZINC001098311495    0.0800
     39 H39        -6.6159    0.8772   57.9882 H       1  ZINC001098311495    0.0800
     40 H40        -9.6006    1.0547   61.0899 H       1  ZINC001098311495    0.0700
     41 H41        -8.7340    2.4711   60.4131 H       1  ZINC001098311495    0.0800
     42 H42       -11.2587    1.3061   59.4929 H       1  ZINC001098311495    0.0700
     43 H43       -10.3922    2.7225   58.8162 H       1  ZINC001098311495    0.0800
     44 H44       -11.0518   -0.7349   59.2786 H       1  ZINC001098311495    0.0500
     45 H45        -9.8233   -0.8286   60.5632 H       1  ZINC001098311495    0.0800
     46 H46        -9.0707   -3.0652   59.7216 H       1  ZINC001098311495    0.1100
     47 H47        -9.9476   -4.7749   57.3574 H       1  ZINC001098311495    0.0700
     48 H48       -11.5612   -5.0595   58.0526 H       1  ZINC001098311495    0.0600
     49 H49       -10.1226   -5.0912   59.1002 H       1  ZINC001098311495    0.0600
     50 H50       -12.7008   -2.3193   58.5368 H       1  ZINC001098311495    0.0700
     51 H51       -11.5265   -1.3729   57.5916 H       1  ZINC001098311495    0.0600
     52 H52       -12.1787   -2.8933   56.9349 H       1  ZINC001098311495    0.0600
@<TRIPOS>BOND
     1     1     2    1
     2     1    28    1
     3     1    29    1
     4     1    30    1
     5     2     3    1
     6     2    31    1
     7     2    32    1
     8     3     4    1
     9     4     9   ar
    10     4     5   ar
    11     5     6   ar
    12     5    33    1
    13     6     7   ar
    14     6    34    1
    15     7     8   ar
    16     7    35    1
    17     8     9   ar
    18     8    36    1
    19     9    10    1
    20    10    11    2
    21    10    12   am
    22    12    13    1
    23    12    37    1
    24    13    14    1
    25    13    20    1
    26    13    15    1
    27    15    16    1
    28    15    38    1
    29    15    39    1
    30    16    17    1
    31    16    22    1
    32    16    18    1
    33    18    19    1
    34    18    40    1
    35    18    41    1
    36    19    20    1
    37    19    42    1
    38    19    43    1
    39    20    21    1
    40    20    22    1
    41    22    23    1
    42    23    24    1
    43    23    44    1
    44    23    45    1
    45    24    25    2
    46    24    46    1
    47    25    26    1
    48    25    27    1
    49    26    47    1
    50    26    48    1
    51    26    49    1
    52    27    50    1
    53    27    51    1
    54    27    52    1
@<TRIPOS>SUBSTRUCTURE
     1 ZINC001098311495        1 TEMP              0 ****  ****    0 ROOT


##########                                Name:    ZINC000956479608
##########                DOCK_Rotatable_Bonds:                   5
##########                         Heavy_Atoms:                  25
##########                    Molecular_Weight:             345.442
##########                DOCK_Rotatable_Bonds:                   5
##########                       Formal_Charge:          -0.0100001
##########                     HBond_Acceptors:                   6
##########                        HBond_Donors:                   1
##########                         Heavy_Atoms:                  25
##########                          Grid_Score:          -28.947285
##########                     Grid_vdw_energy:          -28.395443
##########                      Grid_es_energy:           -0.551842
##########           Internal_energy_repulsive:           34.174461

@<TRIPOS>MOLECULE
ZINC000956479608
 52 55 1 0 0
SMALL
USER_CHARGES


@<TRIPOS>ATOM
      1 C1        -12.4804    2.0744   51.5183 C.3     1  ZINC000956479608   -0.0900
      2 C2        -13.6242    1.3334   52.1618 C.2     1  ZINC000956479608   -0.1100
      3 C3        -13.5819    0.4799   53.2303 C.2     1  ZINC000956479608   -0.1000
      4 C4        -12.3895    0.0874   54.0049 C.2     1  ZINC000956479608    0.6100
      5 O5        -12.3903   -0.9506   54.6381 O.2     1  ZINC000956479608   -0.5000
      6 N6        -11.2989    0.8794   54.0106 N.am    1  ZINC000956479608   -0.7100
      7 C7        -10.1153    0.4905   54.7813 C.3     1  ZINC000956479608    0.1800
      8 C8        -10.4884    0.3645   56.2598 C.3     1  ZINC000956479608   -0.1700
      9 C9         -9.5940   -0.8549   54.2709 C.3     1  ZINC000956479608   -0.1500
     10 C10        -9.2538   -0.7346   52.7821 C.3     1  ZINC000956479608    0.1100
     11 N11        -8.3183    0.3836   52.5997 N.am    1  ZINC000956479608   -0.6100
     12 C12        -7.1491    0.2024   51.9541 C.2     1  ZINC000956479608    0.5500
     13 O13        -6.8615   -0.8914   51.5161 O.2     1  ZINC000956479608   -0.5400
     14 C14        -6.1994    1.3588   51.7765 C.3     1  ZINC000956479608   -0.1900
     15 H15        -5.5638    1.5816   52.6335 H       1  ZINC000956479608    0.1200
     16 C16        -5.6136    1.5821   50.3884 C.3     1  ZINC000956479608   -0.1100
     17 H17        -5.9417    0.8871   49.6155 H       1  ZINC000956479608    0.1000
     18 C18        -4.1781    2.0624   50.2412 C.3     1  ZINC000956479608   -0.0900
     19 C19        -3.9252    3.2766   51.1349 C.3     1  ZINC000956479608   -0.1200
     20 C20        -4.9667    4.3519   50.8047 C.3     1  ZINC000956479608   -0.1200
     21 C21        -6.3103    3.9271   51.3976 C.3     1  ZINC000956479608   -0.0900
     22 C22        -6.6724    2.5410   50.9165 C.3     1  ZINC000956479608   -0.1100
     23 H23        -7.6598    2.4462   50.4647 H       1  ZINC000956479608    0.1100
     24 C24        -8.6818    1.7031   53.1338 C.3     1  ZINC000956479608    0.1000
     25 C25        -9.0284    1.5555   54.6187 C.3     1  ZINC000956479608   -0.1400
     26 O26       -14.8488    0.0710   53.4322 O.3     1  ZINC000956479608    0.1200
     27 N27       -15.6069    0.5684   52.6328 N.2     1  ZINC000956479608   -0.3400
     28 C28       -14.9910    1.3627   51.8063 C.2     1  ZINC000956479608   -0.0100
     29 H29       -12.3550    3.0418   52.0045 H       1  ZINC000956479608    0.0800
     30 H30       -11.5648    1.4927   51.6250 H       1  ZINC000956479608    0.0900
     31 H31       -12.6943    2.2246   50.4601 H       1  ZINC000956479608    0.0800
     32 H32       -11.2978    1.7068   53.5045 H       1  ZINC000956479608    0.4100
     33 H33       -11.2629   -0.3937   56.3757 H       1  ZINC000956479608    0.0800
     34 H34        -9.6078    0.0751   56.8333 H       1  ZINC000956479608    0.0700
     35 H35       -10.8604    1.3223   56.6235 H       1  ZINC000956479608    0.0600
     36 H36        -8.6989   -1.1330   54.8274 H       1  ZINC000956479608    0.0800
     37 H37       -10.3601   -1.6179   54.4086 H       1  ZINC000956479608    0.1000
     38 H38        -8.7902   -1.6588   52.4374 H       1  ZINC000956479608    0.0900
     39 H39       -10.1643   -0.5459   52.2133 H       1  ZINC000956479608    0.0600
     40 H40        -3.4990    1.2587   50.5257 H       1  ZINC000956479608    0.0700
     41 H41        -3.9953    2.3361   49.2022 H       1  ZINC000956479608    0.0700
     42 H42        -4.0180    2.9864   52.1814 H       1  ZINC000956479608    0.0600
     43 H43        -2.9247    3.6665   50.9480 H       1  ZINC000956479608    0.0700
     44 H44        -4.6599    5.3038   51.2381 H       1  ZINC000956479608    0.0700
     45 H45        -5.0591    4.4520   49.7232 H       1  ZINC000956479608    0.0700
     46 H46        -6.2396    3.9217   52.4853 H       1  ZINC000956479608    0.0700
     47 H47        -7.0803    4.6352   51.0913 H       1  ZINC000956479608    0.0700
     48 H48        -7.8408    2.3872   53.0212 H       1  ZINC000956479608    0.0900
     49 H49        -9.5457    2.0906   52.5937 H       1  ZINC000956479608    0.0700
     50 H50        -9.3920    2.5081   55.0039 H       1  ZINC000956479608    0.0900
     51 H51        -8.1386    1.2547   55.1718 H       1  ZINC000956479608    0.0900
     52 H52       -15.4366    1.9275   51.0008 H       1  ZINC000956479608    0.2000
@<TRIPOS>BOND
     1     1     2    1
     2     1    29    1
     3     1    30    1
     4     1    31    1
     5     2    28    1
     6     2     3    2
     7     3     4    1
     8     3    26    1
     9     4     5    2
    10     4     6   am
    11     6     7    1
    12     6    32    1
    13     7    25    1
    14     7     8    1
    15     7     9    1
    16     8    33    1
    17     8    34    1
    18     8    35    1
    19     9    10    1
    20     9    36    1
    21     9    37    1
    22    10    11    1
    23    10    38    1
    24    10    39    1
    25    11    12   am
    26    11    24    1
    27    12    13    2
    28    12    14    1
    29    14    15    1
    30    14    22    1
    31    14    16    1
    32    16    17    1
    33    16    22    1
    34    16    18    1
    35    18    19    1
    36    18    40    1
    37    18    41    1
    38    19    20    1
    39    19    42    1
    40    19    43    1
    41    20    21    1
    42    20    44    1
    43    20    45    1
    44    21    22    1
    45    21    46    1
    46    21    47    1
    47    22    23    1
    48    24    25    1
    49    24    48    1
    50    24    49    1
    51    25    50    1
    52    25    51    1
    53    26    27    1
    54    27    28    2
    55    28    52    1
@<TRIPOS>SUBSTRUCTURE
     1 ZINC000956479608        1 TEMP              0 ****  ****    0 ROOT


##########                                Name:    ZINC001757264545
##########                DOCK_Rotatable_Bonds:                  11
##########                         Heavy_Atoms:                  25
##########                    Molecular_Weight:             344.497
##########                DOCK_Rotatable_Bonds:                  11
##########                       Formal_Charge:          0.00999946
##########                     HBond_Acceptors:                   4
##########                        HBond_Donors:                   2
##########                         Heavy_Atoms:                  25
##########                          Grid_Score:          -28.891325
##########                     Grid_vdw_energy:          -28.963308
##########                      Grid_es_energy:            0.071983
##########           Internal_energy_repulsive:            9.753405

@<TRIPOS>MOLECULE
ZINC001757264545
 57 57 1 0 0
SMALL
USER_CHARGES


@<TRIPOS>ATOM
      1 C1         -0.4029    3.8803   56.6994 C.1     1  ZINC001757264545   -0.2100
      2 C2         -1.1710    4.2218   55.8797 C.1     1  ZINC001757264545   -0.1900
      3 C3         -2.1339    4.6500   54.8521 C.3     1  ZINC001757264545   -0.0100
      4 C4         -1.3775    5.2194   53.6501 C.3     1  ZINC001757264545   -0.1200
      5 C5         -0.4833    4.1332   53.0491 C.3     1  ZINC001757264545   -0.1200
      6 C6          0.3617    4.7332   51.9236 C.3     1  ZINC001757264545   -0.1000
      7 C7          1.6432    3.9143   51.7559 C.3     1  ZINC001757264545   -0.1400
      8 C8          1.3136    2.5914   51.1137 C.2     1  ZINC001757264545    0.5100
      9 O9          1.5934    1.5560   51.6800 O.2     1  ZINC001757264545   -0.5400
     10 N10         0.7080    2.5588   49.9100 N.am    1  ZINC001757264545   -0.7300
     11 C11         0.3860    1.2729   49.2867 C.3     1  ZINC001757264545    0.1400
     12 H12         0.2933    0.5082   50.0579 H       1  ZINC001757264545    0.1000
     13 C13         1.5014    0.8839   48.3144 C.3     1  ZINC001757264545   -0.1300
     14 C14         1.1651   -0.4592   47.6632 C.3     1  ZINC001757264545   -0.1200
     15 C15        -0.1566   -0.3401   46.9019 C.3     1  ZINC001757264545   -0.1200
     16 C16        -1.2720    0.0489   47.8741 C.3     1  ZINC001757264545   -0.1300
     17 C17        -0.9357    1.3920   48.5251 C.3     1  ZINC001757264545    0.1400
     18 H18        -0.8430    2.1565   47.7539 H       1  ZINC001757264545    0.1000
     19 N19        -2.0038    1.7644   49.4561 N.am    1  ZINC001757264545   -0.7200
     20 C20        -3.1715    2.2447   48.9847 C.2     1  ZINC001757264545    0.6400
     21 O21        -3.3391    2.3675   47.7864 O.2     1  ZINC001757264545   -0.5200
     22 C22        -4.2150    2.6103   49.8948 C.1     1  ZINC001757264545   -0.2300
     23 C23        -5.0704    2.9102   50.6409 C.1     1  ZINC001757264545   -0.0500
     24 C24        -6.1429    3.2861   51.5764 C.3     1  ZINC001757264545    0.0300
     25 C25        -7.4775    2.7353   51.0701 C.3     1  ZINC001757264545   -0.1400
     26 C26        -5.8418    2.7028   52.9584 C.3     1  ZINC001757264545   -0.1400
     27 C27        -6.2242    4.8109   51.6729 C.3     1  ZINC001757264545   -0.1400
     28 H28         0.2840    3.5749   57.4324 H       1  ZINC001757264545    0.2200
     29 H29        -2.7894    5.4166   55.2652 H       1  ZINC001757264545    0.0900
     30 H30        -2.7302    3.7948   54.5341 H       1  ZINC001757264545    0.0900
     31 H31        -0.7620    6.0592   53.9728 H       1  ZINC001757264545    0.0700
     32 H32        -2.0911    5.5591   52.8995 H       1  ZINC001757264545    0.0700
     33 H33        -1.1042    3.3314   52.6492 H       1  ZINC001757264545    0.0700
     34 H34         0.1726    3.7334   53.8224 H       1  ZINC001757264545    0.0700
     35 H35         0.6186    5.7631   52.1716 H       1  ZINC001757264545    0.0700
     36 H36        -0.2059    4.7143   50.9933 H       1  ZINC001757264545    0.0700
     37 H37         2.0945    3.7414   52.7329 H       1  ZINC001757264545    0.0900
     38 H38         2.3433    4.4606   51.1238 H       1  ZINC001757264545    0.0900
     39 H39         0.4853    3.3869   49.4566 H       1  ZINC001757264545    0.4000
     40 H40         1.5941    1.6485   47.5431 H       1  ZINC001757264545    0.0700
     41 H41         2.4430    0.7990   48.8569 H       1  ZINC001757264545    0.0800
     42 H42         1.9598   -0.7364   46.9706 H       1  ZINC001757264545    0.0700
     43 H43         1.0724   -1.2238   48.4346 H       1  ZINC001757264545    0.0700
     44 H44        -0.3961   -1.2969   46.4379 H       1  ZINC001757264545    0.0700
     45 H45        -0.0639    0.4245   46.1305 H       1  ZINC001757264545    0.0700
     46 H46        -1.3648   -0.7157   48.6454 H       1  ZINC001757264545    0.0700
     47 H47        -2.2136    0.1337   47.3316 H       1  ZINC001757264545    0.0800
     48 H48        -1.8706    1.6654   50.4118 H       1  ZINC001757264545    0.4000
     49 H49        -7.4196    1.6490   51.0013 H       1  ZINC001757264545    0.0600
     50 H50        -8.2717    3.0137   51.7628 H       1  ZINC001757264545    0.0700
     51 H51        -7.6919    3.1508   50.0854 H       1  ZINC001757264545    0.0600
     52 H52        -4.8911    3.0952   53.3191 H       1  ZINC001757264545    0.0600
     53 H53        -6.6360    2.9812   53.6511 H       1  ZINC001757264545    0.0700
     54 H54        -5.7839    1.6166   52.8896 H       1  ZINC001757264545    0.0600
     55 H55        -6.4386    5.2264   50.6883 H       1  ZINC001757264545    0.0600
     56 H56        -7.0183    5.0893   52.3657 H       1  ZINC001757264545    0.0700
     57 H57        -5.2733    5.2033   52.0336 H       1  ZINC001757264545    0.0600
@<TRIPOS>BOND
     1     1     2    3
     2     1    28    1
     3     2     3    1
     4     3     4    1
     5     3    29    1
     6     3    30    1
     7     4     5    1
     8     4    31    1
     9     4    32    1
    10     5     6    1
    11     5    33    1
    12     5    34    1
    13     6     7    1
    14     6    35    1
    15     6    36    1
    16     7     8    1
    17     7    37    1
    18     7    38    1
    19     8     9    2
    20     8    10   am
    21    10    11    1
    22    10    39    1
    23    11    12    1
    24    11    17    1
    25    11    13    1
    26    13    14    1
    27    13    40    1
    28    13    41    1
    29    14    15    1
    30    14    42    1
    31    14    43    1
    32    15    16    1
    33    15    44    1
    34    15    45    1
    35    16    17    1
    36    16    46    1
    37    16    47    1
    38    17    18    1
    39    17    19    1
    40    19    20   am
    41    19    48    1
    42    20    21    2
    43    20    22    1
    44    22    23    3
    45    23    24    1
    46    24    25    1
    47    24    26    1
    48    24    27    1
    49    25    49    1
    50    25    50    1
    51    25    51    1
    52    26    52    1
    53    26    53    1
    54    26    54    1
    55    27    55    1
    56    27    56    1
    57    27    57    1
@<TRIPOS>SUBSTRUCTURE
     1 ZINC001757264545        1 TEMP              0 ****  ****    0 ROOT


##########                                Name:    ZINC000375477402
##########                DOCK_Rotatable_Bonds:                   5
##########                         Heavy_Atoms:                  26
##########                    Molecular_Weight:             378.342
##########                DOCK_Rotatable_Bonds:                   5
##########                       Formal_Charge:         -1.2666e-07
##########                     HBond_Acceptors:                   9
##########                        HBond_Donors:                   1
##########                         Heavy_Atoms:                  26
##########                          Grid_Score:          -28.792269
##########                     Grid_vdw_energy:          -28.279039
##########                      Grid_es_energy:           -0.513230
##########           Internal_energy_repulsive:            7.822583

@<TRIPOS>MOLECULE
ZINC000375477402
 45 47 1 0 0
SMALL
USER_CHARGES


@<TRIPOS>ATOM
      1 O1         -4.2217    2.3383   50.3477 O.2     1  ZINC000375477402   -0.5600
      2 C2         -3.0693    2.7028   50.4801 C.2     1  ZINC000375477402    0.7200
      3 N3         -2.7475    3.5813   51.4502 N.am    1  ZINC000375477402   -0.7300
      4 C4         -3.7873    4.1016   52.3415 C.3     1  ZINC000375477402    0.1800
      5 H5         -4.6343    3.4156   52.3512 H       1  ZINC000375477402    0.1500
      6 C6         -3.2328    4.2348   53.7364 C.ar    1  ZINC000375477402   -0.1300
      7 C7         -1.8926    4.5162   53.9234 C.ar    1  ZINC000375477402   -0.0800
      8 C8         -1.3823    4.6386   55.2024 C.ar    1  ZINC000375477402   -0.0900
      9 C9         -2.2113    4.4798   56.2969 C.ar    1  ZINC000375477402   -0.1100
     10 C10        -3.5538    4.1979   56.1131 C.ar    1  ZINC000375477402    0.0800
     11 F11        -4.3648    4.0426   57.1824 F       1  ZINC000375477402   -0.1200
     12 C12        -4.0667    4.0808   54.8303 C.ar    1  ZINC000375477402    0.1000
     13 F13        -5.3769    3.8057   54.6483 F       1  ZINC000375477402   -0.1100
     14 C14        -4.2473    5.4729   51.8425 C.3     1  ZINC000375477402    0.4400
     15 F15        -3.1332    6.2286   51.4622 F       1  ZINC000375477402   -0.1600
     16 F16        -5.0966    5.3082   50.7431 F       1  ZINC000375477402   -0.1700
     17 F17        -4.9330    6.1357   52.8662 F       1  ZINC000375477402   -0.1800
     18 N18        -2.1127    2.2241   49.6601 N.am    1  ZINC000375477402   -0.6300
     19 C19        -0.6812    2.5756   49.7115 C.3     1  ZINC000375477402    0.1000
     20 C20         0.0476    1.3767   49.0522 C.3     1  ZINC000375477402   -0.1200
     21 C21        -0.9484    0.9847   47.9380 C.3     1  ZINC000375477402   -0.1100
     22 C22        -2.3221    1.2589   48.5688 C.3     1  ZINC000375477402    0.1400
     23 C23        -0.7304    1.8558   46.7072 C.3     1  ZINC000375477402   -0.1100
     24 C24        -1.6855    1.4042   45.5961 C.3     1  ZINC000375477402   -0.1600
     25 C25        -1.4696   -0.0874   45.3268 C.3     1  ZINC000375477402    0.0600
     26 O26        -1.6943   -0.8267   46.5290 O.3     1  ZINC000375477402   -0.3800
     27 C27        -0.8009   -0.4913   47.5945 C.3     1  ZINC000375477402    0.0800
     28 H28        -1.8275    3.8690   51.5584 H       1  ZINC000375477402    0.4000
     29 H29        -1.2432    4.6403   53.0694 H       1  ZINC000375477402    0.1400
     30 H30        -0.3347    4.8582   55.3466 H       1  ZINC000375477402    0.1500
     31 H31        -1.8114    4.5753   57.2956 H       1  ZINC000375477402    0.1500
     32 H32        -0.4948    3.4894   49.1473 H       1  ZINC000375477402    0.0700
     33 H33        -0.3569    2.6945   50.7453 H       1  ZINC000375477402    0.0700
     34 H34         1.0043    1.6848   48.6305 H       1  ZINC000375477402    0.0900
     35 H35         0.1800    0.5609   49.7628 H       1  ZINC000375477402    0.0800
     36 H36        -2.7423    0.3324   48.9604 H       1  ZINC000375477402    0.0800
     37 H37        -2.9931    1.6883   47.8249 H       1  ZINC000375477402    0.0700
     38 H38        -0.9301    2.8976   46.9581 H       1  ZINC000375477402    0.0700
     39 H39         0.2997    1.7532   46.3661 H       1  ZINC000375477402    0.0700
     40 H40        -2.7156    1.5726   45.9101 H       1  ZINC000375477402    0.0700
     41 H41        -1.4825    1.9718   44.6879 H       1  ZINC000375477402    0.0800
     42 H42        -2.1665   -0.4224   44.5586 H       1  ZINC000375477402    0.1000
     43 H43        -0.4472   -0.2506   44.9858 H       1  ZINC000375477402    0.0500
     44 H44         0.2248   -0.6912   47.2847 H       1  ZINC000375477402    0.0600
     45 H45        -1.0390   -1.0937   48.4712 H       1  ZINC000375477402    0.1000
@<TRIPOS>BOND
     1     1     2    2
     2     2     3   am
     3     2    18   am
     4     3     4    1
     5     3    28    1
     6     4     5    1
     7     4     6    1
     8     4    14    1
     9     6    12   ar
    10     6     7   ar
    11     7     8   ar
    12     7    29    1
    13     8     9   ar
    14     8    30    1
    15     9    10   ar
    16     9    31    1
    17    10    11    1
    18    10    12   ar
    19    12    13    1
    20    14    15    1
    21    14    16    1
    22    14    17    1
    23    18    22    1
    24    18    19    1
    25    19    20    1
    26    19    32    1
    27    19    33    1
    28    20    21    1
    29    20    34    1
    30    20    35    1
    31    21    27    1
    32    21    22    1
    33    21    23    1
    34    22    36    1
    35    22    37    1
    36    23    24    1
    37    23    38    1
    38    23    39    1
    39    24    25    1
    40    24    40    1
    41    24    41    1
    42    25    26    1
    43    25    42    1
    44    25    43    1
    45    26    27    1
    46    27    44    1
    47    27    45    1
@<TRIPOS>SUBSTRUCTURE
     1 ZINC000375477402        1 TEMP              0 ****  ****    0 ROOT


##########                                Name:    ZINC000467104849
##########                DOCK_Rotatable_Bonds:                   6
##########                         Heavy_Atoms:                  29
##########                    Molecular_Weight:             421.896
##########                DOCK_Rotatable_Bonds:                   6
##########                       Formal_Charge:           0.0200002
##########                     HBond_Acceptors:                   7
##########                        HBond_Donors:                   0
##########                         Heavy_Atoms:                  29
##########                          Grid_Score:          -28.783901
##########                     Grid_vdw_energy:          -28.009935
##########                      Grid_es_energy:           -0.773965
##########           Internal_energy_repulsive:           65.836899

@<TRIPOS>MOLECULE
ZINC000467104849
 54 56 1 0 0
SMALL
USER_CHARGES


@<TRIPOS>ATOM
      1 C1          1.6005    6.5288   51.3423 C.3     1  ZINC000467104849    0.0200
      2 O2          1.8673    5.1263   51.2777 O.3     1  ZINC000467104849   -0.3000
      3 C3          1.6841    4.5178   50.0754 C.ar    1  ZINC000467104849    0.1000
      4 C4          1.2626    5.2552   48.9812 C.ar    1  ZINC000467104849   -0.1700
      5 C5          1.0772    4.6351   47.7593 C.ar    1  ZINC000467104849   -0.1200
      6 C6          1.3111    3.2794   47.6264 C.ar    1  ZINC000467104849   -0.0800
      7 C7          1.1070    2.6083   46.2926 C.3     1  ZINC000467104849   -0.0400
      8 C8          0.0256    3.3530   45.5071 C.3     1  ZINC000467104849   -0.1300
      9 C9          2.4177    2.6321   45.5038 C.3     1  ZINC000467104849   -0.1600
     10 C10         0.6769    1.1804   46.5093 C.2     1  ZINC000467104849    0.5300
     11 O11         1.3212    0.2731   46.0270 O.2     1  ZINC000467104849   -0.5300
     12 N12        -0.4239    0.9115   47.2390 N.am    1  ZINC000467104849   -0.6100
     13 C13        -0.8634   -0.4746   47.4643 C.3     1  ZINC000467104849    0.0600
     14 C14        -1.0942   -0.6706   48.9670 C.3     1  ZINC000467104849    0.0500
     15 O15        -1.9638    0.3573   49.4477 O.3     1  ZINC000467104849   -0.3700
     16 C16        -1.4345    1.6792   49.3194 C.3     1  ZINC000467104849    0.1300
     17 H17        -0.4820    1.7427   49.8456 H       1  ZINC000467104849    0.0800
     18 C18        -2.4039    2.6692   49.9118 C.ar    1  ZINC000467104849   -0.0900
     19 C19        -3.7527    2.5704   49.6263 C.ar    1  ZINC000467104849   -0.0500
     20 C20        -4.6435    3.4777   50.1688 C.ar    1  ZINC000467104849   -0.1400
     21 C21        -4.1847    4.4857   50.9989 C.ar    1  ZINC000467104849    0.1200
     22 F22        -5.0544    5.3726   51.5300 F       1  ZINC000467104849   -0.1200
     23 C23        -2.8322    4.5841   51.2851 C.ar    1  ZINC000467104849   -0.0800
     24 Cl24       -2.2543    5.8475   52.3260 Cl      1  ZINC000467104849   -0.0400
     25 C25        -1.9441    3.6722   50.7449 C.ar    1  ZINC000467104849   -0.0700
     26 C26        -1.2181    1.9951   47.8393 C.3     1  ZINC000467104849    0.0900
     27 C27         1.7324    2.5373   48.7146 C.ar    1  ZINC000467104849   -0.1600
     28 C28         1.9252    3.1536   49.9403 C.ar    1  ZINC000467104849    0.1100
     29 O29         2.3395    2.4253   51.0115 O.3     1  ZINC000467104849   -0.3000
     30 C30         2.5675    1.0307   50.7989 C.3     1  ZINC000467104849    0.0200
     31 H31         1.7858    6.8876   52.3547 H       1  ZINC000467104849    0.1000
     32 H32         2.2525    7.0552   50.6452 H       1  ZINC000467104849    0.0600
     33 H33         0.5597    6.7133   51.0762 H       1  ZINC000467104849    0.0600
     34 H34         1.0784    6.3146   49.0825 H       1  ZINC000467104849    0.1400
     35 H35         0.7486    5.2111   46.9069 H       1  ZINC000467104849    0.1300
     36 H36         0.3739    4.3592   45.2737 H       1  ZINC000467104849    0.0700
     37 H37        -0.1849    2.8176   44.5813 H       1  ZINC000467104849    0.0700
     38 H38        -0.8828    3.4130   46.1067 H       1  ZINC000467104849    0.0700
     39 H39         3.1633    2.0270   46.0197 H       1  ZINC000467104849    0.0700
     40 H40         2.2487    2.2275   44.5059 H       1  ZINC000467104849    0.0700
     41 H41         2.7751    3.6588   45.4239 H       1  ZINC000467104849    0.0700
     42 H42        -1.7919   -0.6578   46.9235 H       1  ZINC000467104849    0.0800
     43 H43        -0.0940   -1.1646   47.1180 H       1  ZINC000467104849    0.1100
     44 H44        -1.5508   -1.6448   49.1413 H       1  ZINC000467104849    0.1100
     45 H45        -0.1404   -0.6155   49.4920 H       1  ZINC000467104849    0.0600
     46 H46        -4.1109    1.7839   48.9787 H       1  ZINC000467104849    0.1500
     47 H47        -5.6971    3.4002   49.9448 H       1  ZINC000467104849    0.1500
     48 H48        -0.8901    3.7480   50.9678 H       1  ZINC000467104849    0.1500
     49 H49        -0.6855    2.9410   47.7400 H       1  ZINC000467104849    0.1100
     50 H50        -2.1812    2.0606   47.3332 H       1  ZINC000467104849    0.0800
     51 H51         1.9146    1.4782   48.6081 H       1  ZINC000467104849    0.1400
     52 H52         1.6441    0.5587   50.4632 H       1  ZINC000467104849    0.0600
     53 H53         3.3390    0.9003   50.0399 H       1  ZINC000467104849    0.0600
     54 H54         2.8933    0.5696   51.7312 H       1  ZINC000467104849    0.1000
@<TRIPOS>BOND
     1     1     2    1
     2     1    31    1
     3     1    32    1
     4     1    33    1
     5     2     3    1
     6     3    28   ar
     7     3     4   ar
     8     4     5   ar
     9     4    34    1
    10     5     6   ar
    11     5    35    1
    12     6     7    1
    13     6    27   ar
    14     7     8    1
    15     7     9    1
    16     7    10    1
    17     8    36    1
    18     8    37    1
    19     8    38    1
    20     9    39    1
    21     9    40    1
    22     9    41    1
    23    10    11    2
    24    10    12   am
    25    12    26    1
    26    12    13    1
    27    13    14    1
    28    13    42    1
    29    13    43    1
    30    14    15    1
    31    14    44    1
    32    14    45    1
    33    15    16    1
    34    16    17    1
    35    16    18    1
    36    16    26    1
    37    18    25   ar
    38    18    19   ar
    39    19    20   ar
    40    19    46    1
    41    20    21   ar
    42    20    47    1
    43    21    22    1
    44    21    23   ar
    45    23    24    1
    46    23    25   ar
    47    25    48    1
    48    26    49    1
    49    26    50    1
    50    27    28   ar
    51    27    51    1
    52    28    29    1
    53    29    30    1
    54    30    52    1
    55    30    53    1
    56    30    54    1
@<TRIPOS>SUBSTRUCTURE
     1 ZINC000467104849        1 TEMP              0 ****  ****    0 ROOT


##########                                Name:    ZINC001625935330
##########                DOCK_Rotatable_Bonds:                   5
##########                         Heavy_Atoms:                  25
##########                    Molecular_Weight:             327.385
##########                DOCK_Rotatable_Bonds:                   5
##########                       Formal_Charge:           0.0199995
##########                     HBond_Acceptors:                   4
##########                        HBond_Donors:                   1
##########                         Heavy_Atoms:                  25
##########                          Grid_Score:          -28.766230
##########                     Grid_vdw_energy:          -26.788692
##########                      Grid_es_energy:           -1.977538
##########           Internal_energy_repulsive:           16.484694

@<TRIPOS>MOLECULE
ZINC001625935330
 42 44 1 0 0
SMALL
USER_CHARGES


@<TRIPOS>ATOM
      1 C1          0.2571   -0.0060   49.5422 C.3     1  ZINC001625935330   -0.1600
      2 C2         -1.1602    0.4102   49.1433 C.3     1  ZINC001625935330    0.1800
      3 H3         -1.8499   -0.4093   49.3453 H       1  ZINC001625935330    0.1000
      4 N4         -1.5599    1.5873   49.9185 N.am    1  ZINC001625935330   -0.7100
      5 C5         -2.8565    1.9512   49.9708 C.2     1  ZINC001625935330    0.5800
      6 O6         -3.6939    1.3039   49.3738 O.2     1  ZINC001625935330   -0.5300
      7 C7         -3.2611    3.1407   50.7563 C.ar    1  ZINC001625935330    0.0800
      8 C8         -4.6015    3.5069   50.8099 C.ar    1  ZINC001625935330   -0.1000
      9 C9         -4.9657    4.6313   51.5560 C.ar    1  ZINC001625935330    0.0000
     10 C10        -6.3833    5.0606   51.6432 C.ar    1  ZINC001625935330   -0.0600
     11 C11        -6.7283    6.1872   52.3871 C.ar    1  ZINC001625935330   -0.1000
     12 C12        -8.0484    6.5823   52.4643 C.ar    1  ZINC001625935330   -0.1200
     13 C13        -9.0282    5.8622   51.8050 C.ar    1  ZINC001625935330   -0.1100
     14 C14        -8.6915    4.7430   51.0650 C.ar    1  ZINC001625935330   -0.1200
     15 C15        -7.3739    4.3419   50.9766 C.ar    1  ZINC001625935330   -0.1000
     16 C16        -3.9601    5.3401   52.2176 C.ar    1  ZINC001625935330   -0.1400
     17 C17        -2.6495    4.9090   52.1131 C.ar    1  ZINC001625935330    0.1100
     18 N18        -2.3405    3.8431   51.4067 N.ar    1  ZINC001625935330   -0.4600
     19 C19        -1.1913    0.7424   47.6737 C.ar    1  ZINC001625935330   -0.0900
     20 C20        -1.5015   -0.2400   46.7504 C.ar    1  ZINC001625935330   -0.0800
     21 C21        -1.5323    0.0564   45.3991 C.ar    1  ZINC001625935330   -0.1100
     22 C22        -1.2540    1.3352   44.9638 C.ar    1  ZINC001625935330   -0.0700
     23 C23        -0.9405    2.3319   45.8903 C.ar    1  ZINC001625935330   -0.0200
     24 C24        -0.6505    3.6619   45.4456 C.1     1  ZINC001625935330    0.2500
     25 N25        -0.4204    4.7170   45.0928 N.1     1  ZINC001625935330   -0.4100
     26 C26        -0.9159    2.0271   47.2526 C.ar    1  ZINC001625935330   -0.0600
     27 H27         0.5544   -0.8818   48.9655 H       1  ZINC001625935330    0.0700
     28 H28         0.9468    0.8134   49.3403 H       1  ZINC001625935330    0.0600
     29 H29         0.2795   -0.2462   50.6052 H       1  ZINC001625935330    0.0700
     30 H30        -0.8915    2.1047   50.3941 H       1  ZINC001625935330    0.4100
     31 H31        -5.3490    2.9321   50.2834 H       1  ZINC001625935330    0.1500
     32 H32        -5.9641    6.7500   52.9026 H       1  ZINC001625935330    0.1300
     33 H33        -8.3170    7.4551   53.0409 H       1  ZINC001625935330    0.1300
     34 H34       -10.0601    6.1747   51.8684 H       1  ZINC001625935330    0.1300
     35 H35        -9.4605    4.1843   50.5525 H       1  ZINC001625935330    0.1300
     36 H36        -7.1120    3.4682   50.3984 H       1  ZINC001625935330    0.1300
     37 H37        -4.2027    6.2143   52.8035 H       1  ZINC001625935330    0.1400
     38 H38        -1.8685    5.4539   52.6226 H       1  ZINC001625935330    0.1700
     39 H39        -1.7203   -1.2430   47.0859 H       1  ZINC001625935330    0.1300
     40 H40        -1.7745   -0.7155   44.6836 H       1  ZINC001625935330    0.1400
     41 H41        -1.2780    1.5651   43.9088 H       1  ZINC001625935330    0.1400
     42 H42        -0.6743    2.7933   47.9744 H       1  ZINC001625935330    0.1400
@<TRIPOS>BOND
     1     1     2    1
     2     1    27    1
     3     1    28    1
     4     1    29    1
     5     2     3    1
     6     2     4    1
     7     2    19    1
     8     4     5   am
     9     4    30    1
    10     5     6    2
    11     5     7    1
    12     7    18   ar
    13     7     8   ar
    14     8     9   ar
    15     8    31    1
    16     9    10    1
    17     9    16   ar
    18    10    15   ar
    19    10    11   ar
    20    11    12   ar
    21    11    32    1
    22    12    13   ar
    23    12    33    1
    24    13    14   ar
    25    13    34    1
    26    14    15   ar
    27    14    35    1
    28    15    36    1
    29    16    17   ar
    30    16    37    1
    31    17    18   ar
    32    17    38    1
    33    19    26   ar
    34    19    20   ar
    35    20    21   ar
    36    20    39    1
    37    21    22   ar
    38    21    40    1
    39    22    23   ar
    40    22    41    1
    41    23    24    1
    42    23    26   ar
    43    24    25    3
    44    26    42    1
@<TRIPOS>SUBSTRUCTURE
     1 ZINC001625935330        1 TEMP              0 ****  ****    0 ROOT


##########                                Name:    ZINC000742270208
##########                DOCK_Rotatable_Bonds:                   5
##########                         Heavy_Atoms:                  25
##########                    Molecular_Weight:             376.328
##########                DOCK_Rotatable_Bonds:                   5
##########                       Formal_Charge:                0.02
##########                     HBond_Acceptors:                   9
##########                        HBond_Donors:                   0
##########                         Heavy_Atoms:                  25
##########                          Grid_Score:          -28.762585
##########                     Grid_vdw_energy:          -28.586922
##########                      Grid_es_energy:           -0.175662
##########           Internal_energy_repulsive:           13.856016

@<TRIPOS>MOLECULE
ZINC000742270208
 37 38 1 0 0
SMALL
USER_CHARGES


@<TRIPOS>ATOM
      1 C1         -5.9095    1.8677   51.7894 C.3     1  ZINC000742270208   -0.1400
      2 C2         -5.4442    3.2271   51.2634 C.3     1  ZINC000742270208   -0.1400
      3 C3         -6.1174    4.3422   52.0661 C.3     1  ZINC000742270208   -0.1400
      4 C4         -3.9482    3.3365   51.4086 C.2     1  ZINC000742270208    0.4000
      5 O5         -3.4712    3.8590   52.3934 O.2     1  ZINC000742270208   -0.4300
      6 C6         -3.0661    2.8092   50.3553 C.ar    1  ZINC000742270208   -0.1000
      7 C7         -3.6126    2.2393   49.2010 C.ar    1  ZINC000742270208   -0.0900
      8 C8         -2.7795    1.7473   48.2185 C.ar    1  ZINC000742270208   -0.0200
      9 C9         -1.4058    1.8161   48.3727 C.ar    1  ZINC000742270208   -0.6800
     10 S10        -0.3497    1.1847   47.1114 S.o2    1  ZINC000742270208    2.6600
     11 O11         0.9799    1.4807   47.5160 O.2     1  ZINC000742270208   -0.9300
     12 O12        -0.8019   -0.1331   46.8319 O.2     1  ZINC000742270208   -0.9000
     13 O13        -0.6089    2.0037   45.8549 O.3     1  ZINC000742270208   -0.6400
     14 C14        -0.1141    1.4444   44.7182 C.ar    1  ZINC000742270208    0.0500
     15 C15         1.1968    1.6924   44.3353 C.ar    1  ZINC000742270208    0.0900
     16 F16         1.9826    2.4898   45.0917 F       1  ZINC000742270208   -0.0900
     17 C17         1.6991    1.1214   43.1773 C.ar    1  ZINC000742270208    0.1100
     18 F18         2.9750    1.3625   42.8042 F       1  ZINC000742270208   -0.1000
     19 C19         0.8946    0.3036   42.4024 C.ar    1  ZINC000742270208   -0.1100
     20 C20        -0.4133    0.0554   42.7824 C.ar    1  ZINC000742270208    0.1200
     21 F21        -1.1965   -0.7431   42.0245 F       1  ZINC000742270208   -0.1000
     22 C22        -0.9177    0.6202   43.9425 C.ar    1  ZINC000742270208    0.1200
     23 F23        -2.1939    0.3773   44.3131 F       1  ZINC000742270208   -0.0900
     24 C24        -0.8572    2.3787   49.5120 C.ar    1  ZINC000742270208   -0.0300
     25 C25        -1.6770    2.8806   50.5007 C.ar    1  ZINC000742270208   -0.0800
     26 H26        -6.9916    1.7886   51.6844 H       1  ZINC000742270208    0.0700
     27 H27        -5.4299    1.0734   51.2176 H       1  ZINC000742270208    0.0600
     28 H28        -5.6386    1.7729   52.8409 H       1  ZINC000742270208    0.0600
     29 H29        -5.7150    3.3219   50.2119 H       1  ZINC000742270208    0.1000
     30 H30        -5.8465    4.2474   53.1176 H       1  ZINC000742270208    0.0700
     31 H31        -5.7858    5.3106   51.6915 H       1  ZINC000742270208    0.0600
     32 H32        -7.1994    4.2630   51.9611 H       1  ZINC000742270208    0.0700
     33 H33        -4.6844    2.1842   49.0796 H       1  ZINC000742270208    0.1500
     34 H34        -3.2000    1.3069   47.3266 H       1  ZINC000742270208    0.1500
     35 H35         1.2877   -0.1412   41.5001 H       1  ZINC000742270208    0.1900
     36 H36         0.2156    2.4287   49.6250 H       1  ZINC000742270208    0.1500
     37 H37        -1.2475    3.3193   51.3893 H       1  ZINC000742270208    0.1500
@<TRIPOS>BOND
     1     1     2    1
     2     1    26    1
     3     1    27    1
     4     1    28    1
     5     2     3    1
     6     2     4    1
     7     2    29    1
     8     3    30    1
     9     3    31    1
    10     3    32    1
    11     4     5    2
    12     4     6    1
    13     6    25   ar
    14     6     7   ar
    15     7     8   ar
    16     7    33    1
    17     8     9   ar
    18     8    34    1
    19     9    10    1
    20     9    24   ar
    21    10    11    2
    22    10    12    2
    23    10    13    1
    24    13    14    1
    25    14    22   ar
    26    14    15   ar
    27    15    16    1
    28    15    17   ar
    29    17    18    1
    30    17    19   ar
    31    19    20   ar
    32    19    35    1
    33    20    21    1
    34    20    22   ar
    35    22    23    1
    36    24    25   ar
    37    24    36    1
    38    25    37    1
@<TRIPOS>SUBSTRUCTURE
     1 ZINC000742270208        1 TEMP              0 ****  ****    0 ROOT


##########                                Name:    ZINC000506388363
##########                DOCK_Rotatable_Bonds:                   5
##########                         Heavy_Atoms:                  29
##########                    Molecular_Weight:             416.858
##########                DOCK_Rotatable_Bonds:                   5
##########                       Formal_Charge:         7.07805e-07
##########                     HBond_Acceptors:                   8
##########                        HBond_Donors:                   1
##########                         Heavy_Atoms:                  29
##########                          Grid_Score:          -28.672806
##########                     Grid_vdw_energy:          -28.222097
##########                      Grid_es_energy:           -0.450708
##########           Internal_energy_repulsive:           15.616604

@<TRIPOS>MOLECULE
ZINC000506388363
 48 51 1 0 0
SMALL
USER_CHARGES


@<TRIPOS>ATOM
      1 O1         -7.3990    3.8167   53.6295 O.2     1  ZINC000506388363   -0.5300
      2 C2         -7.4443    3.6981   52.4206 C.2     1  ZINC000506388363    0.5600
      3 C3         -8.7490    3.5516   51.7406 C.ar    1  ZINC000506388363   -0.1200
      4 C4         -9.0997    4.4171   50.7034 C.ar    1  ZINC000506388363   -0.0900
      5 C5        -10.3184    4.2753   50.0722 C.ar    1  ZINC000506388363   -0.1100
      6 C6        -11.1927    3.2782   50.4653 C.ar    1  ZINC000506388363   -0.0900
      7 C7        -10.8515    2.4157   51.4937 C.ar    1  ZINC000506388363   -0.0400
      8 Cl8       -11.9553    1.1671   51.9796 Cl      1  ZINC000506388363   -0.0600
      9 C9         -9.6326    2.5436   52.1294 C.ar    1  ZINC000506388363   -0.0600
     10 N10        -6.3056    3.7057   51.6996 N.am    1  ZINC000506388363   -0.6100
     11 C11        -4.9971    3.8442   52.3567 C.3     1  ZINC000506388363    0.1000
     12 C12        -4.0822    2.7190   51.8614 C.3     1  ZINC000506388363    0.0400
     13 N13        -4.0446    2.7335   50.3929 N.3     1  ZINC000506388363   -0.5300
     14 C14        -3.0473    1.7833   49.8825 C.3     1  ZINC000506388363    0.1200
     15 C15        -1.8246    2.5361   49.4247 C.2     1  ZINC000506388363   -0.2100
     16 C16        -1.3054    3.6393   50.0064 C.2     1  ZINC000506388363    0.0600
     17 N17        -0.2157    4.0093   49.3001 N.pl3   1  ZINC000506388363   -0.4700
     18 N18        -0.0528    3.1044   48.2434 N.2     1  ZINC000506388363   -0.2700
     19 C19        -1.0165    2.2110   48.3177 C.2     1  ZINC000506388363    0.1300
     20 C20        -1.2217    1.0691   47.3924 C.ar    1  ZINC000506388363   -0.0700
     21 C21        -1.6358    1.2968   46.0798 C.ar    1  ZINC000506388363    0.1500
     22 F22        -1.8507    2.5584   45.6469 F       1  ZINC000506388363   -0.1200
     23 C23        -1.8252    0.2285   45.2228 C.ar    1  ZINC000506388363   -0.1600
     24 C24        -1.6052   -1.0635   45.6642 C.ar    1  ZINC000506388363   -0.0500
     25 C25        -1.1947   -1.2960   46.9642 C.ar    1  ZINC000506388363   -0.1600
     26 C26        -0.9960   -0.2362   47.8297 C.ar    1  ZINC000506388363    0.1600
     27 F27        -0.5950   -0.4649   49.0993 F       1  ZINC000506388363   -0.1200
     28 C28        -5.3710    2.4613   49.8231 C.3     1  ZINC000506388363    0.0400
     29 C29        -6.3383    3.5697   50.2355 C.3     1  ZINC000506388363    0.1200
     30 H30        -8.4184    5.1967   50.3957 H       1  ZINC000506388363    0.1400
     31 H31       -10.5904    4.9447   49.2695 H       1  ZINC000506388363    0.1400
     32 H32       -12.1457    3.1721   49.9684 H       1  ZINC000506388363    0.1400
     33 H33        -9.3670    1.8705   52.9311 H       1  ZINC000506388363    0.1400
     34 H34        -4.5602    4.8099   52.1026 H       1  ZINC000506388363    0.0800
     35 H35        -5.1199    3.7674   53.4369 H       1  ZINC000506388363    0.1000
     36 H36        -3.0760    2.8696   52.2524 H       1  ZINC000506388363    0.0900
     37 H37        -4.4670    1.7592   52.2058 H       1  ZINC000506388363    0.0400
     38 H38        -2.7702    1.0873   50.6741 H       1  ZINC000506388363    0.1000
     39 H39        -3.4687    1.2301   49.0432 H       1  ZINC000506388363    0.0400
     40 H40        -1.6939    4.1378   50.8821 H       1  ZINC000506388363    0.1800
     41 H41         0.3551    4.7700   49.4911 H       1  ZINC000506388363    0.4400
     42 H42        -2.1461    0.4033   44.2064 H       1  ZINC000506388363    0.1500
     43 H43        -1.7549   -1.8945   44.9909 H       1  ZINC000506388363    0.1500
     44 H44        -1.0249   -2.3073   47.3028 H       1  ZINC000506388363    0.1500
     45 H45        -5.2994    2.4249   48.7361 H       1  ZINC000506388363    0.0900
     46 H46        -5.7377    1.5050   50.1961 H       1  ZINC000506388363    0.0400
     47 H47        -7.3473    3.3140   49.9123 H       1  ZINC000506388363    0.1000
     48 H48        -6.0322    4.5112   49.7793 H       1  ZINC000506388363    0.0800
@<TRIPOS>BOND
     1     1     2    2
     2     2     3    1
     3     2    10   am
     4     3     9   ar
     5     3     4   ar
     6     4     5   ar
     7     4    30    1
     8     5     6   ar
     9     5    31    1
    10     6     7   ar
    11     6    32    1
    12     7     8    1
    13     7     9   ar
    14     9    33    1
    15    10    29    1
    16    10    11    1
    17    11    12    1
    18    11    34    1
    19    11    35    1
    20    12    13    1
    21    12    36    1
    22    12    37    1
    23    13    14    1
    24    13    28    1
    25    14    15    1
    26    14    38    1
    27    14    39    1
    28    15    19    1
    29    15    16    2
    30    16    17    1
    31    16    40    1
    32    17    18    1
    33    17    41    1
    34    18    19    2
    35    19    20    1
    36    20    26   ar
    37    20    21   ar
    38    21    22    1
    39    21    23   ar
    40    23    24   ar
    41    23    42    1
    42    24    25   ar
    43    24    43    1
    44    25    26   ar
    45    25    44    1
    46    26    27    1
    47    28    29    1
    48    28    45    1
    49    28    46    1
    50    29    47    1
    51    29    48    1
@<TRIPOS>SUBSTRUCTURE
     1 ZINC000506388363        1 TEMP              0 ****  ****    0 ROOT


##########                                Name:    ZINC000588570917
##########                DOCK_Rotatable_Bonds:                   7
##########                         Heavy_Atoms:                  25
##########                    Molecular_Weight:             366.481
##########                DOCK_Rotatable_Bonds:                   7
##########                       Formal_Charge:          -0.0100006
##########                     HBond_Acceptors:                   7
##########                        HBond_Donors:                   1
##########                         Heavy_Atoms:                  25
##########                          Grid_Score:          -28.645723
##########                     Grid_vdw_energy:          -27.734621
##########                      Grid_es_energy:           -0.911102
##########           Internal_energy_repulsive:           18.124590

@<TRIPOS>MOLECULE
ZINC000588570917
 51 52 1 0 0
SMALL
USER_CHARGES


@<TRIPOS>ATOM
      1 C1          0.6069    3.5935   49.0515 C.3     1  ZINC000588570917   -0.1300
      2 C2         -0.7172    3.4498   49.7564 C.2     1  ZINC000588570917   -0.0500
      3 C3         -1.5447    2.4633   49.4227 C.2     1  ZINC000588570917   -0.2000
      4 C4         -1.1590    1.4903   48.3384 C.3     1  ZINC000588570917   -0.0900
      5 C5         -2.1440    1.6079   47.1737 C.3     1  ZINC000588570917   -0.1500
      6 C6         -2.8363    2.3221   50.1118 C.2     1  ZINC000588570917    0.5600
      7 O7         -3.4790    1.2962   49.9948 O.2     1  ZINC000588570917   -0.5100
      8 N8         -3.3076    3.3294   50.8730 N.am    1  ZINC000588570917   -0.6800
      9 C9         -4.5356    3.1952   51.5283 C.ar    1  ZINC000588570917    0.2100
     10 C10        -4.5859    3.1800   52.9162 C.ar    1  ZINC000588570917   -0.1700
     11 C11        -5.8005    3.0479   53.5602 C.ar    1  ZINC000588570917    0.0000
     12 C12        -6.9656    2.9308   52.8248 C.ar    1  ZINC000588570917   -0.7000
     13 S13        -8.5131    2.7624   53.6504 S.o2    1  ZINC000588570917    2.6900
     14 O14        -8.4055    3.5016   54.8593 O.2     1  ZINC000588570917   -0.9500
     15 O15        -9.5170    3.0089   52.6754 O.2     1  ZINC000588570917   -0.9500
     16 N16        -8.6655    1.1721   54.0867 N.am    1  ZINC000588570917   -1.0000
     17 C17        -8.8176    0.7852   55.4982 C.3     1  ZINC000588570917    0.0900
     18 C18       -10.0257   -0.1512   55.6154 C.3     1  ZINC000588570917    0.0700
     19 H19       -10.9389    0.4043   55.4022 H       1  ZINC000588570917    0.0700
     20 C20       -10.0941   -0.7221   57.0332 C.3     1  ZINC000588570917   -0.1500
     21 O21        -9.8861   -1.2195   54.6757 O.3     1  ZINC000588570917   -0.3700
     22 C22        -9.8696   -0.7987   53.3095 C.3     1  ZINC000588570917    0.0800
     23 H23        -9.8054   -1.6721   52.6604 H       1  ZINC000588570917    0.1200
     24 C24       -11.1512   -0.0234   52.9980 C.3     1  ZINC000588570917   -0.1900
     25 C25        -8.6591    0.1048   53.0737 C.3     1  ZINC000588570917    0.0900
     26 C26        -6.9191    2.9461   51.4428 C.ar    1  ZINC000588570917    0.0000
     27 C27        -5.7084    3.0828   50.7926 C.ar    1  ZINC000588570917   -0.1400
     28 H28         1.1430    4.4517   49.4567 H       1  ZINC000588570917    0.0600
     29 H29         1.1989    2.6908   49.2027 H       1  ZINC000588570917    0.0800
     30 H30         0.4367    3.7420   47.9851 H       1  ZINC000588570917    0.0800
     31 H31        -0.9944    4.1479   50.5325 H       1  ZINC000588570917    0.1300
     32 H32        -0.1524    1.7177   47.9875 H       1  ZINC000588570917    0.0700
     33 H33        -1.1849    0.4754   48.7351 H       1  ZINC000588570917    0.0800
     34 H34        -2.1181    2.6229   46.7770 H       1  ZINC000588570917    0.0500
     35 H35        -1.8650    0.9043   46.3894 H       1  ZINC000588570917    0.0600
     36 H36        -3.1506    1.3806   47.5246 H       1  ZINC000588570917    0.0600
     37 H37        -2.7950    4.1476   50.9664 H       1  ZINC000588570917    0.4100
     38 H38        -3.6762    3.2710   53.4912 H       1  ZINC000588570917    0.1400
     39 H39        -5.8402    3.0356   54.6394 H       1  ZINC000588570917    0.1400
     40 H40        -7.9190    0.2690   55.8362 H       1  ZINC000588570917    0.0900
     41 H41        -8.9819    1.6742   56.1070 H       1  ZINC000588570917    0.1000
     42 H42       -10.1965    0.0937   57.7489 H       1  ZINC000588570917    0.0700
     43 H43       -10.9533   -1.3877   57.1159 H       1  ZINC000588570917    0.0700
     44 H44        -9.1814   -1.2790   57.2453 H       1  ZINC000588570917    0.0700
     45 H45       -11.2137    0.8507   53.6462 H       1  ZINC000588570917    0.0600
     46 H46       -11.1379    0.2970   51.9563 H       1  ZINC000588570917    0.0700
     47 H47       -12.0151   -0.6655   53.1696 H       1  ZINC000588570917    0.0700
     48 H48        -8.7162    0.5423   52.0770 H       1  ZINC000588570917    0.1000
     49 H49        -7.7425   -0.4774   53.1677 H       1  ZINC000588570917    0.0900
     50 H50        -7.8309    2.8544   50.8713 H       1  ZINC000588570917    0.1400
     51 H51        -5.6728    3.0950   49.7133 H       1  ZINC000588570917    0.1500
@<TRIPOS>BOND
     1     1     2    1
     2     1    28    1
     3     1    29    1
     4     1    30    1
     5     2     3    2
     6     2    31    1
     7     3     4    1
     8     3     6    1
     9     4     5    1
    10     4    32    1
    11     4    33    1
    12     5    34    1
    13     5    35    1
    14     5    36    1
    15     6     7    2
    16     6     8   am
    17     8     9    1
    18     8    37    1
    19     9    27   ar
    20     9    10   ar
    21    10    11   ar
    22    10    38    1
    23    11    12   ar
    24    11    39    1
    25    12    13    1
    26    12    26   ar
    27    13    14    2
    28    13    15    2
    29    13    16   am
    30    16    25    1
    31    16    17    1
    32    17    18    1
    33    17    40    1
    34    17    41    1
    35    18    19    1
    36    18    20    1
    37    18    21    1
    38    20    42    1
    39    20    43    1
    40    20    44    1
    41    21    22    1
    42    22    23    1
    43    22    24    1
    44    22    25    1
    45    24    45    1
    46    24    46    1
    47    24    47    1
    48    25    48    1
    49    25    49    1
    50    26    27   ar
    51    26    50    1
    52    27    51    1
@<TRIPOS>SUBSTRUCTURE
     1 ZINC000588570917        1 TEMP              0 ****  ****    0 ROOT


##########                                Name:    ZINC001135312623
##########                DOCK_Rotatable_Bonds:                   3
##########                         Heavy_Atoms:                  25
##########                    Molecular_Weight:             341.323
##########                DOCK_Rotatable_Bonds:                   3
##########                       Formal_Charge:        -1.78814e-07
##########                     HBond_Acceptors:                   8
##########                        HBond_Donors:                   2
##########                         Heavy_Atoms:                  25
##########                          Grid_Score:          -28.588741
##########                     Grid_vdw_energy:          -29.736551
##########                      Grid_es_energy:            1.147810
##########           Internal_energy_repulsive:          160.349335

@<TRIPOS>MOLECULE
ZINC001135312623
 40 42 1 0 0
SMALL
USER_CHARGES


@<TRIPOS>ATOM
      1 C1         -3.7362    2.1612   49.7461 C.3     1  ZINC001135312623   -0.1300
      2 C2         -2.6307    3.0386   50.2741 C.ar    1  ZINC001135312623   -0.0600
      3 C3         -2.7808    3.6864   51.4843 C.ar    1  ZINC001135312623   -0.1000
      4 C4         -1.7669    4.4923   51.9695 C.ar    1  ZINC001135312623   -0.0300
      5 C5         -1.9341    5.1978   53.2906 C.3     1  ZINC001135312623   -0.1300
      6 C6         -0.5999    4.6517   51.2453 C.ar    1  ZINC001135312623   -0.0200
      7 N7          0.4826    5.5151   51.7683 N.pl3   1  ZINC001135312623    0.0200
      8 O8          1.1583    6.1768   51.0008 O.2     1  ZINC001135312623   -0.1500
      9 O9          0.6978    5.5639   52.9661 O.2     1  ZINC001135312623   -0.1500
     10 C10        -0.4430    4.0057   50.0345 C.ar    1  ZINC001135312623   -0.0700
     11 C11        -1.4572    3.1920   49.5468 C.ar    1  ZINC001135312623    0.1500
     12 N12        -1.3016    2.5366   48.3213 N.am    1  ZINC001135312623   -0.6600
     13 C13        -0.1667    2.6951   47.6116 C.2     1  ZINC001135312623    0.5600
     14 O14         0.7217    3.4080   48.0369 O.2     1  ZINC001135312623   -0.5000
     15 C15        -0.0025    2.0035   46.3185 C.ar    1  ZINC001135312623   -0.1600
     16 C16         1.2020    2.1068   45.6176 C.ar    1  ZINC001135312623   -0.0400
     17 C17         1.3544    1.4614   44.4100 C.ar    1  ZINC001135312623   -0.1500
     18 C18         0.3099    0.7076   43.8905 C.ar    1  ZINC001135312623    0.2000
     19 N19         0.4420    0.0487   42.6679 N.am    1  ZINC001135312623   -0.6700
     20 C20        -0.6568   -0.4058   42.0326 C.2     1  ZINC001135312623    0.6600
     21 O21        -0.5381   -1.0012   40.9800 O.2     1  ZINC001135312623   -0.4900
     22 O22        -1.8828   -0.2086   42.5498 O.3     1  ZINC001135312623   -0.3400
     23 C23        -2.0065   -0.2261   43.9985 C.3     1  ZINC001135312623    0.1100
     24 C24        -0.8921    0.6017   44.5886 C.ar    1  ZINC001135312623   -0.1800
     25 C25        -1.0503    1.2386   45.7951 C.ar    1  ZINC001135312623    0.0000
     26 H26        -3.5949    1.1422   50.1063 H       1  ZINC001135312623    0.0900
     27 H27        -4.6977    2.5393   50.0935 H       1  ZINC001135312623    0.0800
     28 H28        -3.7157    2.1672   48.6562 H       1  ZINC001135312623    0.0700
     29 H29        -3.6910    3.5640   52.0524 H       1  ZINC001135312623    0.1500
     30 H30        -1.6426    4.5281   54.0997 H       1  ZINC001135312623    0.0900
     31 H31        -1.3040    6.0870   53.3100 H       1  ZINC001135312623    0.0800
     32 H32        -2.9769    5.4886   53.4177 H       1  ZINC001135312623    0.0800
     33 H33         0.4688    4.1307   49.4693 H       1  ZINC001135312623    0.1700
     34 H34        -2.0103    1.9679   47.9819 H       1  ZINC001135312623    0.4200
     35 H35         2.0137    2.6931   46.0225 H       1  ZINC001135312623    0.1400
     36 H36         2.2850    1.5416   43.8679 H       1  ZINC001135312623    0.1500
     37 H37         1.3200   -0.0814   42.2769 H       1  ZINC001135312623    0.4300
     38 H38        -2.9687    0.1961   44.2884 H       1  ZINC001135312623    0.1300
     39 H39        -1.9309   -1.2518   44.3597 H       1  ZINC001135312623    0.1000
     40 H40        -1.9814    1.1524   46.3357 H       1  ZINC001135312623    0.1500
@<TRIPOS>BOND
     1     1     2    1
     2     1    26    1
     3     1    27    1
     4     1    28    1
     5     2    11   ar
     6     2     3   ar
     7     3     4   ar
     8     3    29    1
     9     4     5    1
    10     4     6   ar
    11     5    30    1
    12     5    31    1
    13     5    32    1
    14     6     7    1
    15     6    10   ar
    16     7     8    2
    17     7     9    2
    18    10    11   ar
    19    10    33    1
    20    11    12    1
    21    12    13   am
    22    12    34    1
    23    13    14    2
    24    13    15    1
    25    15    25   ar
    26    15    16   ar
    27    16    17   ar
    28    16    35    1
    29    17    18   ar
    30    17    36    1
    31    18    24   ar
    32    18    19    1
    33    19    20   am
    34    19    37    1
    35    20    21    2
    36    20    22    1
    37    22    23    1
    38    23    24    1
    39    23    38    1
    40    23    39    1
    41    24    25   ar
    42    25    40    1
@<TRIPOS>SUBSTRUCTURE
     1 ZINC001135312623        1 TEMP              0 ****  ****    0 ROOT


##########                                Name:    ZINC000632456679
##########                DOCK_Rotatable_Bonds:                   6
##########                         Heavy_Atoms:                  24
##########                    Molecular_Weight:              374.82
##########                DOCK_Rotatable_Bonds:                   6
##########                       Formal_Charge:          -0.0299999
##########                     HBond_Acceptors:                   9
##########                        HBond_Donors:                   1
##########                         Heavy_Atoms:                  24
##########                          Grid_Score:          -28.578669
##########                     Grid_vdw_energy:          -26.241890
##########                      Grid_es_energy:           -2.336778
##########           Internal_energy_repulsive:           33.700153

@<TRIPOS>MOLECULE
ZINC000632456679
 40 41 1 0 0
SMALL
USER_CHARGES


@<TRIPOS>ATOM
      1 C1         -5.7783    3.9254   52.8646 C.3     1  ZINC000632456679   -0.1600
      2 C2         -5.6765    2.8957   51.7375 C.3     1  ZINC000632456679    0.1900
      3 C3         -6.1929    1.5436   52.2338 C.3     1  ZINC000632456679   -0.2000
      4 C4         -6.5193    3.3577   50.5471 C.3     1  ZINC000632456679   -0.6300
      5 S5         -7.9570    4.2862   51.1484 S.o2    1  ZINC000632456679    2.4100
      6 C6         -8.9583    4.4424   49.6437 C.3     1  ZINC000632456679   -0.6600
      7 O7         -8.6620    3.4765   52.0792 O.2     1  ZINC000632456679   -0.9300
      8 O8         -7.5268    5.5820   51.5423 O.2     1  ZINC000632456679   -0.9300
      9 N9         -4.2778    2.7620   51.3230 N.am    1  ZINC000632456679   -0.7200
     10 C10        -3.9633    2.0235   50.2404 C.2     1  ZINC000632456679    0.6200
     11 O11        -4.8404    1.4669   49.6086 O.2     1  ZINC000632456679   -0.5000
     12 C12        -2.5549    1.8903   49.8220 C.2     1  ZINC000632456679   -0.0900
     13 C13        -2.0943    1.3364   48.6612 C.2     1  ZINC000632456679   -0.1300
     14 C14        -0.6815    1.4626   48.7626 C.2     1  ZINC000632456679    0.0400
     15 C15         0.3252    1.0205   47.7658 C.ar    1  ZINC000632456679   -0.0500
     16 C16         1.3923    0.2160   48.1593 C.ar    1  ZINC000632456679   -0.0600
     17 C17         2.3262   -0.1927   47.2288 C.ar    1  ZINC000632456679   -0.1100
     18 C18         2.2061    0.1946   45.9064 C.ar    1  ZINC000632456679   -0.0700
     19 C19         1.1493    0.9937   45.5071 C.ar    1  ZINC000632456679   -0.0800
     20 Cl20        1.0060    1.4754   43.8455 Cl      1  ZINC000632456679   -0.0400
     21 C21         0.2035    1.4044   46.4299 C.ar    1  ZINC000632456679    0.1400
     22 F22        -0.8287    2.1844   46.0406 F       1  ZINC000632456679   -0.1100
     23 N23        -0.4459    2.0473   49.9103 N.2     1  ZINC000632456679   -0.3200
     24 O24        -1.4681    2.2959   50.5056 O.3     1  ZINC000632456679    0.1400
     25 H25        -5.1779    3.5962   53.7127 H       1  ZINC000632456679    0.0900
     26 H26        -5.4105    4.8885   52.5110 H       1  ZINC000632456679    0.0600
     27 H27        -6.8190    4.0249   53.1730 H       1  ZINC000632456679    0.0700
     28 H28        -7.2336    1.6431   52.5421 H       1  ZINC000632456679    0.0800
     29 H29        -6.1205    0.8101   51.4308 H       1  ZINC000632456679    0.0800
     30 H30        -5.5925    1.2145   53.0819 H       1  ZINC000632456679    0.0900
     31 H31        -5.9173    3.9977   49.9022 H       1  ZINC000632456679    0.1600
     32 H32        -6.8581    2.4890   49.9827 H       1  ZINC000632456679    0.1400
     33 H33        -9.2146    3.4498   49.2733 H       1  ZINC000632456679    0.1300
     34 H34        -9.8715    4.9926   49.8705 H       1  ZINC000632456679    0.1300
     35 H35        -8.3904    4.9785   48.8834 H       1  ZINC000632456679    0.1300
     36 H36        -3.5779    3.2051   51.8278 H       1  ZINC000632456679    0.4200
     37 H37        -2.6687    0.9035   47.8555 H       1  ZINC000632456679    0.1900
     38 H38         1.4888   -0.0874   49.1913 H       1  ZINC000632456679    0.1500
     39 H39         3.1532   -0.8166   47.5342 H       1  ZINC000632456679    0.1500
     40 H40         2.9402   -0.1276   45.1828 H       1  ZINC000632456679    0.1500
@<TRIPOS>BOND
     1     1     2    1
     2     1    25    1
     3     1    26    1
     4     1    27    1
     5     2     3    1
     6     2     4    1
     7     2     9    1
     8     3    28    1
     9     3    29    1
    10     3    30    1
    11     4     5    1
    12     4    31    1
    13     4    32    1
    14     5     6    1
    15     5     7    2
    16     5     8    2
    17     6    33    1
    18     6    34    1
    19     6    35    1
    20     9    10   am
    21     9    36    1
    22    10    11    2
    23    10    12    1
    24    12    24    1
    25    12    13    2
    26    13    14    1
    27    13    37    1
    28    14    15    1
    29    14    23    2
    30    15    21   ar
    31    15    16   ar
    32    16    17   ar
    33    16    38    1
    34    17    18   ar
    35    17    39    1
    36    18    19   ar
    37    18    40    1
    38    19    20    1
    39    19    21   ar
    40    21    22    1
    41    23    24    1
@<TRIPOS>SUBSTRUCTURE
     1 ZINC000632456679        1 TEMP              0 ****  ****    0 ROOT


##########                                Name:    ZINC000001174632
##########                DOCK_Rotatable_Bonds:                   6
##########                         Heavy_Atoms:                  29
##########                    Molecular_Weight:             385.419
##########                DOCK_Rotatable_Bonds:                   6
##########                       Formal_Charge:           0.0400005
##########                     HBond_Acceptors:                   5
##########                        HBond_Donors:                   1
##########                         Heavy_Atoms:                  29
##########                          Grid_Score:          -28.445040
##########                     Grid_vdw_energy:          -28.213661
##########                      Grid_es_energy:           -0.231379
##########           Internal_energy_repulsive:           11.316087

@<TRIPOS>MOLECULE
ZINC000001174632
 48 51 1 0 0
SMALL
USER_CHARGES


@<TRIPOS>ATOM
      1 C1        -10.7871   -4.9601   58.4376 C.3     1  ZINC000001174632    0.0400
      2 O2        -11.6995   -3.8411   58.5905 O.3     1  ZINC000001174632   -0.3500
      3 C3        -12.4289   -3.4945   57.5115 C.2     1  ZINC000001174632    0.5200
      4 O4        -12.7382   -4.3362   56.6914 O.2     1  ZINC000001174632   -0.5200
      5 C5        -12.8512   -2.0950   57.3263 C.ar    1  ZINC000001174632   -0.2000
      6 C6        -14.2078   -1.7776   57.2249 C.ar    1  ZINC000001174632   -0.0200
      7 C7        -14.5961   -0.4664   57.0523 C.ar    1  ZINC000001174632   -0.1800
      8 C8        -13.6477    0.5411   56.9785 C.ar    1  ZINC000001174632   -0.0300
      9 C9        -12.3034    0.2441   57.0765 C.ar    1  ZINC000001174632   -0.1900
     10 C10       -11.8924   -1.0707   57.2565 C.ar    1  ZINC000001174632    0.2600
     11 N11       -10.5404   -1.3722   57.3558 N.pl3   1  ZINC000001174632   -0.6500
     12 C12        -9.6098   -0.5471   56.7785 C.2     1  ZINC000001174632    0.2300
     13 C13        -8.7599    0.3019   57.4610 C.2     1  ZINC000001174632   -0.1800
     14 C14        -8.7014    0.4726   58.9298 C.ar    1  ZINC000001174632   -0.0600
     15 C15        -8.2673   -0.5781   59.7395 C.ar    1  ZINC000001174632   -0.0600
     16 C16        -8.2142   -0.4150   61.1079 C.ar    1  ZINC000001174632   -0.1500
     17 C17        -8.5922    0.7919   61.6802 C.ar    1  ZINC000001174632    0.1400
     18 O18        -8.5384    0.9485   63.0295 O.3     1  ZINC000001174632   -0.3200
     19 C19        -8.1389   -0.1874   63.7991 C.3     1  ZINC000001174632    0.0300
     20 C20        -9.0245    1.8393   60.8783 C.ar    1  ZINC000001174632   -0.2100
     21 C21        -9.0746    1.6865   59.5086 C.ar    1  ZINC000001174632   -0.0500
     22 C22        -7.9243    1.0055   56.4798 C.2     1  ZINC000001174632    0.4500
     23 O23        -7.0636    1.8291   56.7213 O.2     1  ZINC000001174632   -0.4100
     24 C24        -8.3309    0.5183   55.1328 C.ar    1  ZINC000001174632   -0.1600
     25 C25        -7.8986    0.8217   53.8555 C.ar    1  ZINC000001174632   -0.0500
     26 C26        -8.4795    0.1920   52.7591 C.ar    1  ZINC000001174632   -0.1100
     27 C27        -9.4846   -0.7328   52.9422 C.ar    1  ZINC000001174632   -0.0900
     28 C28        -9.9272   -1.0456   54.2220 C.ar    1  ZINC000001174632   -0.0800
     29 C29        -9.3518   -0.4294   55.3236 C.ar    1  ZINC000001174632   -0.0600
     30 H30       -10.0630   -4.7342   57.6548 H       1  ZINC000001174632    0.0700
     31 H31       -10.2636   -5.1332   59.3778 H       1  ZINC000001174632    0.1100
     32 H32       -11.3498   -5.8531   58.1653 H       1  ZINC000001174632    0.0700
     33 H33       -14.9514   -2.5587   57.2814 H       1  ZINC000001174632    0.1400
     34 H34       -15.6455   -0.2230   56.9737 H       1  ZINC000001174632    0.1300
     35 H35       -13.9624    1.5652   56.8431 H       1  ZINC000001174632    0.1300
     36 H36       -11.5704    1.0351   57.0172 H       1  ZINC000001174632    0.1300
     37 H37       -10.2544   -2.1664   57.8336 H       1  ZINC000001174632    0.4300
     38 H38        -7.9737   -1.5175   59.2950 H       1  ZINC000001174632    0.1300
     39 H39        -7.8785   -1.2275   61.7351 H       1  ZINC000001174632    0.1300
     40 H40        -8.8369   -1.0066   63.6269 H       1  ZINC000001174632    0.0600
     41 H41        -7.1369   -0.4948   63.4997 H       1  ZINC000001174632    0.0600
     42 H42        -8.1381    0.0729   64.8575 H       1  ZINC000001174632    0.1000
     43 H43        -9.3181    2.7766   61.3275 H       1  ZINC000001174632    0.1300
     44 H44        -9.4107    2.5020   58.8854 H       1  ZINC000001174632    0.1300
     45 H45        -7.1116    1.5465   53.7086 H       1  ZINC000001174632    0.1400
     46 H46        -8.1418    0.4290   51.7609 H       1  ZINC000001174632    0.1400
     47 H47        -9.9312   -1.2169   52.0863 H       1  ZINC000001174632    0.1400
     48 H48       -10.7152   -1.7713   54.3591 H       1  ZINC000001174632    0.1300
@<TRIPOS>BOND
     1     1     2    1
     2     1    30    1
     3     1    31    1
     4     1    32    1
     5     2     3    1
     6     3     4    2
     7     3     5    1
     8     5    10   ar
     9     5     6   ar
    10     6     7   ar
    11     6    33    1
    12     7     8   ar
    13     7    34    1
    14     8     9   ar
    15     8    35    1
    16     9    10   ar
    17     9    36    1
    18    10    11    1
    19    11    12    1
    20    11    37    1
    21    12    29    1
    22    12    13    2
    23    13    14    1
    24    13    22    1
    25    14    21   ar
    26    14    15   ar
    27    15    16   ar
    28    15    38    1
    29    16    17   ar
    30    16    39    1
    31    17    18    1
    32    17    20   ar
    33    18    19    1
    34    19    40    1
    35    19    41    1
    36    19    42    1
    37    20    21   ar
    38    20    43    1
    39    21    44    1
    40    22    23    2
    41    22    24    1
    42    24    29   ar
    43    24    25   ar
    44    25    26   ar
    45    25    45    1
    46    26    27   ar
    47    26    46    1
    48    27    28   ar
    49    27    47    1
    50    28    29   ar
    51    28    48    1
@<TRIPOS>SUBSTRUCTURE
     1 ZINC000001174632        1 TEMP              0 ****  ****    0 ROOT


##########                                Name:    ZINC001291841503
##########                DOCK_Rotatable_Bonds:                   7
##########                         Heavy_Atoms:                  28
##########                    Molecular_Weight:             397.544
##########                DOCK_Rotatable_Bonds:                   7
##########                       Formal_Charge:         -0.00999964
##########                     HBond_Acceptors:                   7
##########                        HBond_Donors:                   0
##########                         Heavy_Atoms:                  28
##########                          Grid_Score:          -28.444366
##########                     Grid_vdw_energy:          -29.653536
##########                      Grid_es_energy:            1.209169
##########           Internal_energy_repulsive:           28.601719

@<TRIPOS>MOLECULE
ZINC001291841503
 55 58 1 0 0
SMALL
USER_CHARGES


@<TRIPOS>ATOM
      1 C1         -4.6192    1.6644   50.5528 C.3     1  ZINC001291841503   -0.1500
      2 C2         -3.9543    2.4014   49.3883 C.3     1  ZINC001291841503   -0.1100
      3 C3         -2.5340    1.8678   49.1914 C.3     1  ZINC001291841503    0.0500
      4 H4         -2.4206    0.9281   49.7321 H       1  ZINC001291841503    0.0900
      5 C5         -2.2836    1.6359   47.7235 C.2     1  ZINC001291841503    0.2000
      6 N6         -2.7003    2.3840   46.7415 N.2     1  ZINC001291841503   -0.2700
      7 N7         -2.3081    1.8964   45.6189 N.2     1  ZINC001291841503   -0.3100
      8 C8         -1.6143    0.8021   45.8261 C.2     1  ZINC001291841503    0.3600
      9 N9         -1.0300    0.0013   44.8577 N.3     1  ZINC001291841503   -0.4500
     10 C10        -2.0410   -0.8058   44.1617 C.3     1  ZINC001291841503    0.0200
     11 C11        -0.2535    0.8074   43.9063 C.3     1  ZINC001291841503    0.0700
     12 H12        -0.8312    1.6670   43.5668 H       1  ZINC001291841503    0.0800
     13 C13         1.0928    1.2596   44.5349 C.3     1  ZINC001291841503   -0.1400
     14 C14         1.9756    1.4006   43.2694 C.3     1  ZINC001291841503    0.0500
     15 O15         1.5578    0.3361   42.4000 O.3     1  ZINC001291841503   -0.3800
     16 C16         0.2100   -0.0505   42.7094 C.3     1  ZINC001291841503    0.0600
     17 N17        -1.5720    0.6048   47.1756 N.pl3   1  ZINC001291841503   -0.4700
     18 C18        -0.9097   -0.4900   47.8891 C.3     1  ZINC001291841503    0.1900
     19 C19         0.3319    0.0301   48.5665 C.2     1  ZINC001291841503   -0.2700
     20 C20         0.4280    0.4175   49.8419 C.2     1  ZINC001291841503    0.0800
     21 N21         1.6264    0.8350   50.1973 N.2     1  ZINC001291841503   -0.4800
     22 C22         2.5464    0.8212   49.2928 C.2     1  ZINC001291841503    0.0500
     23 C23         3.9726    1.2586   49.5065 C.3     1  ZINC001291841503   -0.0800
     24 S24         1.9151    0.2279   47.8189 S.3     1  ZINC001291841503    0.1800
     25 C25        -1.5422    2.8729   49.7175 C.ar    1  ZINC001291841503   -0.0900
     26 C26        -1.6585    3.3469   51.0109 C.ar    1  ZINC001291841503   -0.0900
     27 C27        -0.7487    4.2689   51.4936 C.ar    1  ZINC001291841503   -0.1200
     28 C28         0.2777    4.7165   50.6832 C.ar    1  ZINC001291841503   -0.1200
     29 C29         0.3946    4.2419   49.3901 C.ar    1  ZINC001291841503   -0.1200
     30 C30        -0.5127    3.3166   48.9088 C.ar    1  ZINC001291841503   -0.1100
     31 H31        -4.6591    0.5977   50.3322 H       1  ZINC001291841503    0.0500
     32 H32        -4.0409    1.8259   51.4625 H       1  ZINC001291841503    0.0500
     33 H33        -5.6310    2.0446   50.6931 H       1  ZINC001291841503    0.0600
     34 H34        -4.5325    2.2399   48.4786 H       1  ZINC001291841503    0.0800
     35 H35        -3.9143    3.4681   49.6089 H       1  ZINC001291841503    0.0800
     36 H36        -2.7090   -0.1492   43.6039 H       1  ZINC001291841503    0.0500
     37 H37        -1.5474   -1.4916   43.4732 H       1  ZINC001291841503    0.0900
     38 H38        -2.6169   -1.3751   44.8913 H       1  ZINC001291841503    0.0700
     39 H39         0.9856    2.2155   45.0476 H       1  ZINC001291841503    0.0900
     40 H40         1.4882    0.4978   45.2068 H       1  ZINC001291841503    0.0800
     41 H41         1.8041    2.3665   42.7942 H       1  ZINC001291841503    0.0700
     42 H42         3.0284    1.2869   43.5278 H       1  ZINC001291841503    0.0900
     43 H43         0.1811   -1.1058   42.9811 H       1  ZINC001291841503    0.0800
     44 H44        -0.4332    0.1284   41.8477 H       1  ZINC001291841503    0.0700
     45 H45        -1.5882   -0.8985   48.6381 H       1  ZINC001291841503    0.1100
     46 H46        -0.6367   -1.2724   47.1810 H       1  ZINC001291841503    0.1100
     47 H47        -0.4078    0.3906   50.5253 H       1  ZINC001291841503    0.1700
     48 H48         4.5695    0.4060   49.8303 H       1  ZINC001291841503    0.0900
     49 H49         4.3761    1.6510   48.5730 H       1  ZINC001291841503    0.0800
     50 H50         4.0040    2.0353   50.2707 H       1  ZINC001291841503    0.0900
     51 H51        -2.4605    2.9970   51.6441 H       1  ZINC001291841503    0.1300
     52 H52        -0.8401    4.6396   52.5039 H       1  ZINC001291841503    0.1200
     53 H53         0.9881    5.4374   51.0601 H       1  ZINC001291841503    0.1200
     54 H54         1.1964    4.5919   48.7569 H       1  ZINC001291841503    0.1200
     55 H55        -0.4213    2.9458   47.8986 H       1  ZINC001291841503    0.1200
@<TRIPOS>BOND
     1     1     2    1
     2     1    31    1
     3     1    32    1
     4     1    33    1
     5     2     3    1
     6     2    34    1
     7     2    35    1
     8     3     4    1
     9     3     5    1
    10     3    25    1
    11     5    17    1
    12     5     6    2
    13     6     7    1
    14     7     8    2
    15     8     9    1
    16     8    17    1
    17     9    10    1
    18     9    11    1
    19    10    36    1
    20    10    37    1
    21    10    38    1
    22    11    12    1
    23    11    16    1
    24    11    13    1
    25    13    14    1
    26    13    39    1
    27    13    40    1
    28    14    15    1
    29    14    41    1
    30    14    42    1
    31    15    16    1
    32    16    43    1
    33    16    44    1
    34    17    18    1
    35    18    19    1
    36    18    45    1
    37    18    46    1
    38    19    24    1
    39    19    20    2
    40    20    21    1
    41    20    47    1
    42    21    22    2
    43    22    23    1
    44    22    24    1
    45    23    48    1
    46    23    49    1
    47    23    50    1
    48    25    30   ar
    49    25    26   ar
    50    26    27   ar
    51    26    51    1
    52    27    28   ar
    53    27    52    1
    54    28    29   ar
    55    28    53    1
    56    29    30   ar
    57    29    54    1
    58    30    55    1
@<TRIPOS>SUBSTRUCTURE
     1 ZINC001291841503        1 TEMP              0 ****  ****    0 ROOT


##########                                Name:    ZINC000566738344
##########                DOCK_Rotatable_Bonds:                   5
##########                         Heavy_Atoms:                  23
##########                    Molecular_Weight:             352.478
##########                DOCK_Rotatable_Bonds:                   5
##########                       Formal_Charge:           0.0100005
##########                     HBond_Acceptors:                   7
##########                        HBond_Donors:                   0
##########                         Heavy_Atoms:                  23
##########                          Grid_Score:          -28.408556
##########                     Grid_vdw_energy:          -27.678045
##########                      Grid_es_energy:           -0.730510
##########           Internal_energy_repulsive:           20.410870

@<TRIPOS>MOLECULE
ZINC000566738344
 43 44 1 0 0
SMALL
USER_CHARGES


@<TRIPOS>ATOM
      1 C1         -6.9645    3.5442   51.0776 C.3     1  ZINC000566738344   -0.1300
      2 C2         -7.1419    2.0783   51.3784 C.ar    1  ZINC000566738344   -0.0100
      3 C3         -8.2358    1.6495   52.0943 C.ar    1  ZINC000566738344   -0.1000
      4 C4         -8.4001    0.2949   52.3731 C.ar    1  ZINC000566738344   -0.0500
      5 S5         -9.8021   -0.2499   53.2909 S.3     1  ZINC000566738344   -0.0300
      6 C6         -9.6256    0.6307   54.8670 C.3     1  ZINC000566738344   -0.1200
      7 H7         -8.6726    1.1594   54.8830 H       1  ZINC000566738344    0.1200
      8 C8        -10.7690    1.6356   55.0206 C.3     1  ZINC000566738344   -0.1300
      9 C9         -9.6703   -0.3586   56.0029 C.2     1  ZINC000566738344    0.5200
     10 O10       -10.1232   -1.4691   55.8224 O.2     1  ZINC000566738344   -0.5000
     11 N11        -9.2070   -0.0094   57.2193 N.am    1  ZINC000566738344   -0.6000
     12 C12        -8.6616    1.3326   57.4379 C.3     1  ZINC000566738344    0.0600
     13 C13        -9.2489   -0.9717   58.3232 C.3     1  ZINC000566738344    0.1500
     14 H14        -8.6740   -1.8589   58.0578 H       1  ZINC000566738344    0.1300
     15 C15        -8.6561   -0.3312   59.5906 C.3     1  ZINC000566738344   -0.1300
     16 C16        -9.0306   -1.2605   60.7739 C.3     1  ZINC000566738344   -0.5900
     17 S17       -10.7750   -1.6883   60.4083 S.o2    1  ZINC000566738344    2.4000
     18 O18       -10.9767   -3.0765   60.6345 O.2     1  ZINC000566738344   -0.9300
     19 O19       -11.6323   -0.7385   61.0266 O.2     1  ZINC000566738344   -0.9300
     20 C20       -10.7107   -1.3679   58.6103 C.3     1  ZINC000566738344   -0.6200
     21 C21        -7.4591   -0.6298   51.9279 C.ar    1  ZINC000566738344   -0.1400
     22 C22        -6.3628   -0.2073   51.2112 C.ar    1  ZINC000566738344   -0.0400
     23 C23        -6.1977    1.1514   50.9251 C.ar    1  ZINC000566738344   -0.0400
     24 C24        -5.0580    1.5942   50.1796 C.1     1  ZINC000566738344    0.2500
     25 N25        -4.1539    1.9456   49.5882 N.1     1  ZINC000566738344   -0.4100
     26 H26        -7.4531    3.7830   50.1329 H       1  ZINC000566738344    0.0800
     27 H27        -7.4108    4.1357   51.8770 H       1  ZINC000566738344    0.0800
     28 H28        -5.9016    3.7743   51.0053 H       1  ZINC000566738344    0.0700
     29 H29        -8.9676    2.3642   52.4408 H       1  ZINC000566738344    0.1400
     30 H30       -11.7157    1.1004   55.0937 H       1  ZINC000566738344    0.0800
     31 H31       -10.6148    2.2262   55.9237 H       1  ZINC000566738344    0.0800
     32 H32       -10.7910    2.2962   54.1539 H       1  ZINC000566738344    0.0900
     33 H33        -9.4617    2.0034   57.7512 H       1  ZINC000566738344    0.0700
     34 H34        -7.8968    1.2921   58.2134 H       1  ZINC000566738344    0.0800
     35 H35        -8.2206    1.7009   56.5116 H       1  ZINC000566738344    0.0800
     36 H36        -7.5721   -0.2597   59.5008 H       1  ZINC000566738344    0.1100
     37 H37        -9.0845    0.6593   59.7437 H       1  ZINC000566738344    0.0900
     38 H38        -8.4058   -2.1535   60.7773 H       1  ZINC000566738344    0.1400
     39 H39        -8.9532   -0.7292   61.7226 H       1  ZINC000566738344    0.1400
     40 H40       -11.3842   -0.5525   58.3468 H       1  ZINC000566738344    0.1400
     41 H41       -10.9714   -2.2695   58.0557 H       1  ZINC000566738344    0.1500
     42 H42        -7.5896   -1.6796   52.1454 H       1  ZINC000566738344    0.1200
     43 H43        -5.6331   -0.9250   50.8665 H       1  ZINC000566738344    0.1400
@<TRIPOS>BOND
     1     1     2    1
     2     1    26    1
     3     1    27    1
     4     1    28    1
     5     2    23   ar
     6     2     3   ar
     7     3     4   ar
     8     3    29    1
     9     4     5    1
    10     4    21   ar
    11     5     6    1
    12     6     7    1
    13     6     8    1
    14     6     9    1
    15     8    30    1
    16     8    31    1
    17     8    32    1
    18     9    10    2
    19     9    11   am
    20    11    12    1
    21    11    13    1
    22    12    33    1
    23    12    34    1
    24    12    35    1
    25    13    14    1
    26    13    20    1
    27    13    15    1
    28    15    16    1
    29    15    36    1
    30    15    37    1
    31    16    17    1
    32    16    38    1
    33    16    39    1
    34    17    18    2
    35    17    19    2
    36    17    20    1
    37    20    40    1
    38    20    41    1
    39    21    22   ar
    40    21    42    1
    41    22    23   ar
    42    22    43    1
    43    23    24    1
    44    24    25    3
@<TRIPOS>SUBSTRUCTURE
     1 ZINC000566738344        1 TEMP              0 ****  ****    0 ROOT


##########                                Name:    ZINC000186316242
##########                DOCK_Rotatable_Bonds:                   7
##########                         Heavy_Atoms:                  28
##########                    Molecular_Weight:             392.525
##########                DOCK_Rotatable_Bonds:                   7
##########                       Formal_Charge:         -0.00999981
##########                     HBond_Acceptors:                   6
##########                        HBond_Donors:                   0
##########                         Heavy_Atoms:                  28
##########                          Grid_Score:          -28.364109
##########                     Grid_vdw_energy:          -27.783710
##########                      Grid_es_energy:           -0.580399
##########           Internal_energy_repulsive:           21.320107

@<TRIPOS>MOLECULE
ZINC000186316242
 52 55 1 0 0
SMALL
USER_CHARGES


@<TRIPOS>ATOM
      1 C1          2.3140    4.9363   50.1335 C.3     1  ZINC000186316242   -0.1500
      2 C2          1.0523    4.7719   49.2837 C.3     1  ZINC000186316242    0.1000
      3 N3          0.0146    4.1050   50.0741 N.am    1  ZINC000186316242   -0.5900
      4 C4         -0.2370    2.7943   49.8869 C.2     1  ZINC000186316242    0.5900
      5 O5         -1.0986    2.2407   50.5430 O.2     1  ZINC000186316242   -0.5000
      6 C6          0.5316    2.0320   48.8873 C.2     1  ZINC000186316242    0.0100
      7 C7          1.7575    1.4998   49.1548 C.2     1  ZINC000186316242   -0.2100
      8 S8          2.3303    0.6930   47.7598 S.3     1  ZINC000186316242    0.2000
      9 C9          0.8658    1.1250   46.8852 C.2     1  ZINC000186316242    0.0700
     10 C10         0.5713    0.7613   45.4820 C.ar    1  ZINC000186316242    0.1900
     11 C11        -0.7512    0.7154   45.0422 C.ar    1  ZINC000186316242   -0.1500
     12 C12        -1.0106    0.3739   43.7260 C.ar    1  ZINC000186316242   -0.0700
     13 C13         0.0610    0.0892   42.8920 C.ar    1  ZINC000186316242   -0.1600
     14 C14         1.3484    0.1540   43.3944 C.ar    1  ZINC000186316242    0.1100
     15 N15         1.5689    0.4864   44.6493 N.ar    1  ZINC000186316242   -0.4500
     16 N16         0.0813    1.8070   47.6621 N.2     1  ZINC000186316242   -0.3900
     17 C17        -0.7496    4.8630   51.0680 C.3     1  ZINC000186316242    0.1400
     18 H18        -0.4881    5.9200   51.0197 H       1  ZINC000186316242    0.1000
     19 C19        -0.4833    4.3087   52.4864 C.3     1  ZINC000186316242   -0.1300
     20 C20        -1.8794    4.3811   53.1544 C.3     1  ZINC000186316242    0.0400
     21 N21        -2.8040    4.0196   52.0497 N.3     1  ZINC000186316242   -0.4900
     22 C22        -4.1684    4.4852   52.3315 C.3     1  ZINC000186316242    0.0800
     23 C23        -5.1394    3.3522   52.1206 C.ar    1  ZINC000186316242   -0.0700
     24 C24        -5.4507    2.9382   50.8390 C.ar    1  ZINC000186316242   -0.1000
     25 C25        -6.3414    1.8988   50.6456 C.ar    1  ZINC000186316242   -0.1200
     26 C26        -6.9204    1.2732   51.7338 C.ar    1  ZINC000186316242   -0.1200
     27 C27        -6.6083    1.6866   53.0155 C.ar    1  ZINC000186316242   -0.1200
     28 C28        -5.7144    2.7231   53.2091 C.ar    1  ZINC000186316242   -0.1100
     29 C29        -2.2606    4.6750   50.8374 C.3     1  ZINC000186316242    0.0400
     30 H30         3.0860    5.4325   49.5454 H       1  ZINC000186316242    0.0700
     31 H31         2.0840    5.5380   51.0127 H       1  ZINC000186316242    0.0500
     32 H32         2.6708    3.9555   50.4476 H       1  ZINC000186316242    0.0400
     33 H33         0.6955    5.7528   48.9696 H       1  ZINC000186316242    0.1200
     34 H34         1.2822    4.1702   48.4045 H       1  ZINC000186316242    0.0700
     35 H35         2.2824    1.5752   50.0956 H       1  ZINC000186316242    0.1900
     36 H36        -1.5616    0.9428   45.7189 H       1  ZINC000186316242    0.1400
     37 H37        -2.0245    0.3296   43.3568 H       1  ZINC000186316242    0.1400
     38 H38        -0.1084   -0.1808   41.8601 H       1  ZINC000186316242    0.1400
     39 H39         2.1844   -0.0675   42.7475 H       1  ZINC000186316242    0.1600
     40 H40        -0.1318    3.2780   52.4380 H       1  ZINC000186316242    0.0900
     41 H41         0.2318    4.9366   53.0180 H       1  ZINC000186316242    0.0700
     42 H42        -1.9537    3.6610   53.9694 H       1  ZINC000186316242    0.0800
     43 H43        -2.0829    5.3905   53.5118 H       1  ZINC000186316242    0.0400
     44 H44        -4.2292    4.8284   53.3642 H       1  ZINC000186316242    0.0400
     45 H45        -4.4179    5.3071   51.6603 H       1  ZINC000186316242    0.0800
     46 H46        -4.9985    3.4270   49.9888 H       1  ZINC000186316242    0.1200
     47 H47        -6.5852    1.5759   49.6443 H       1  ZINC000186316242    0.1200
     48 H48        -7.6168    0.4616   51.5828 H       1  ZINC000186316242    0.1200
     49 H49        -7.0608    1.1980   53.8658 H       1  ZINC000186316242    0.1200
     50 H50        -5.4705    3.0461   54.2104 H       1  ZINC000186316242    0.1200
     51 H51        -2.7395    5.6433   50.6924 H       1  ZINC000186316242    0.0500
     52 H52        -2.4271    4.0412   49.9664 H       1  ZINC000186316242    0.0800
@<TRIPOS>BOND
     1     1     2    1
     2     1    30    1
     3     1    31    1
     4     1    32    1
     5     2     3    1
     6     2    33    1
     7     2    34    1
     8     3     4   am
     9     3    17    1
    10     4     5    2
    11     4     6    1
    12     6    16    1
    13     6     7    2
    14     7     8    1
    15     7    35    1
    16     8     9    1
    17     9    10    1
    18     9    16    2
    19    10    15   ar
    20    10    11   ar
    21    11    12   ar
    22    11    36    1
    23    12    13   ar
    24    12    37    1
    25    13    14   ar
    26    13    38    1
    27    14    15   ar
    28    14    39    1
    29    17    18    1
    30    17    29    1
    31    17    19    1
    32    19    20    1
    33    19    40    1
    34    19    41    1
    35    20    21    1
    36    20    42    1
    37    20    43    1
    38    21    22    1
    39    21    29    1
    40    22    23    1
    41    22    44    1
    42    22    45    1
    43    23    28   ar
    44    23    24   ar
    45    24    25   ar
    46    24    46    1
    47    25    26   ar
    48    25    47    1
    49    26    27   ar
    50    26    48    1
    51    27    28   ar
    52    27    49    1
    53    28    50    1
    54    29    51    1
    55    29    52    1
@<TRIPOS>SUBSTRUCTURE
     1 ZINC000186316242        1 TEMP              0 ****  ****    0 ROOT


##########                                Name:    ZINC000192150625
##########                DOCK_Rotatable_Bonds:                   5
##########                         Heavy_Atoms:                  28
##########                    Molecular_Weight:             377.443
##########                DOCK_Rotatable_Bonds:                   5
##########                       Formal_Charge:           0.0199997
##########                     HBond_Acceptors:                   6
##########                        HBond_Donors:                   1
##########                         Heavy_Atoms:                  28
##########                          Grid_Score:          -28.293051
##########                     Grid_vdw_energy:          -27.598564
##########                      Grid_es_energy:           -0.694487
##########           Internal_energy_repulsive:           16.834305

@<TRIPOS>MOLECULE
ZINC000192150625
 51 54 1 0 0
SMALL
USER_CHARGES


@<TRIPOS>ATOM
      1 C1          1.3029    3.0560   50.3267 C.3     1  ZINC000192150625   -0.0800
      2 C2         -0.2036    3.0206   50.3435 C.2     1  ZINC000192150625    0.0400
      3 C3         -0.9684    3.4110   51.3721 C.2     1  ZINC000192150625   -0.1800
      4 C4         -0.4960    3.9539   52.6961 C.3     1  ZINC000192150625   -0.0800
      5 C5         -2.3591    3.2040   50.9497 C.ar    1  ZINC000192150625   -0.1000
      6 C6         -3.5991    3.4101   51.5509 C.ar    1  ZINC000192150625   -0.0700
      7 C7         -4.7549    3.0998   50.8550 C.ar    1  ZINC000192150625    0.1200
      8 N8         -6.0043    3.3036   51.4502 N.am    1  ZINC000192150625   -0.6400
      9 C9         -6.7923    2.2495   51.7406 C.2     1  ZINC000192150625    0.5100
     10 O10        -6.4179    1.1233   51.4858 O.2     1  ZINC000192150625   -0.4900
     11 C11        -8.1262    2.4671   52.3761 C.2     1  ZINC000192150625    0.5100
     12 O12        -9.1269    2.4999   51.6903 O.2     1  ZINC000192150625   -0.5200
     13 N13        -8.2187    2.6269   53.7112 N.am    1  ZINC000192150625   -0.5800
     14 C14        -9.5245    2.8356   54.3515 C.3     1  ZINC000192150625    0.0500
     15 C15        -9.6993    1.7979   55.4647 C.3     1  ZINC000192150625   -0.1200
     16 C16        -8.5090    1.8785   56.4234 C.3     1  ZINC000192150625   -0.0500
     17 C17        -8.6944    0.8822   57.5388 C.ar    1  ZINC000192150625   -0.0300
     18 C18        -7.7036    0.6882   58.4890 C.ar    1  ZINC000192150625   -0.1700
     19 C19        -7.9091   -0.2342   59.4976 C.ar    1  ZINC000192150625    0.1000
     20 N20        -9.0305   -0.9251   59.5615 N.ar    1  ZINC000192150625   -0.4900
     21 C21        -9.9941   -0.7667   58.6753 C.ar    1  ZINC000192150625    0.1000
     22 C22        -9.8621    0.1419   57.6424 C.ar    1  ZINC000192150625   -0.1700
     23 C23        -7.2185    1.5605   55.6648 C.3     1  ZINC000192150625   -0.1200
     24 C24        -7.0162    2.5895   54.5546 C.3     1  ZINC000192150625    0.1100
     25 C25        -4.6758    2.5850   49.5625 C.ar    1  ZINC000192150625   -0.1100
     26 C26        -3.4530    2.3791   48.9629 C.ar    1  ZINC000192150625   -0.0800
     27 C27        -2.2826    2.6848   49.6462 C.ar    1  ZINC000192150625    0.0500
     28 O28        -0.9747    2.5982   49.3266 O.3     1  ZINC000192150625   -0.1900
     29 H29         1.6643    2.6872   49.3667 H       1  ZINC000192150625    0.0800
     30 H30         1.6440    4.0807   50.4740 H       1  ZINC000192150625    0.0900
     31 H31         1.6902    2.4256   51.1272 H       1  ZINC000192150625    0.0900
     32 H32        -0.4081    5.0386   52.6335 H       1  ZINC000192150625    0.0700
     33 H33        -1.2139    3.6918   53.4733 H       1  ZINC000192150625    0.0700
     34 H34         0.4757    3.5240   52.9392 H       1  ZINC000192150625    0.0700
     35 H35        -3.6581    3.8088   52.5529 H       1  ZINC000192150625    0.1400
     36 H36        -6.3035    4.2035   51.6539 H       1  ZINC000192150625    0.4300
     37 H37        -9.5667    3.8383   54.7768 H       1  ZINC000192150625    0.0700
     38 H38       -10.3170    2.7161   53.6128 H       1  ZINC000192150625    0.1600
     39 H39       -10.6206    2.0015   56.0105 H       1  ZINC000192150625    0.0800
     40 H40        -9.7476    0.8004   55.0279 H       1  ZINC000192150625    0.0700
     41 H41        -8.4465    2.8835   56.8408 H       1  ZINC000192150625    0.0900
     42 H42        -6.7828    1.2505   58.4416 H       1  ZINC000192150625    0.1300
     43 H43        -7.1422   -0.3912   60.2416 H       1  ZINC000192150625    0.1600
     44 H44       -10.8984   -1.3509   58.7600 H       1  ZINC000192150625    0.1600
     45 H45       -10.6550    0.2674   56.9198 H       1  ZINC000192150625    0.1300
     46 H46        -6.3739    1.5953   56.3531 H       1  ZINC000192150625    0.0800
     47 H47        -7.2902    0.5652   55.2262 H       1  ZINC000192150625    0.0700
     48 H48        -6.1530    2.3102   53.9504 H       1  ZINC000192150625    0.1000
     49 H49        -6.8544    3.5739   54.9938 H       1  ZINC000192150625    0.0800
     50 H50        -5.5819    2.3449   49.0260 H       1  ZINC000192150625    0.1400
     51 H51        -3.4039    1.9797   47.9608 H       1  ZINC000192150625    0.1400
@<TRIPOS>BOND
     1     1     2    1
     2     1    29    1
     3     1    30    1
     4     1    31    1
     5     2    28    1
     6     2     3    2
     7     3     4    1
     8     3     5    1
     9     4    32    1
    10     4    33    1
    11     4    34    1
    12     5    27   ar
    13     5     6   ar
    14     6     7   ar
    15     6    35    1
    16     7     8    1
    17     7    25   ar
    18     8     9   am
    19     8    36    1
    20     9    10    2
    21     9    11    1
    22    11    12    2
    23    11    13   am
    24    13    24    1
    25    13    14    1
    26    14    15    1
    27    14    37    1
    28    14    38    1
    29    15    16    1
    30    15    39    1
    31    15    40    1
    32    16    17    1
    33    16    23    1
    34    16    41    1
    35    17    22   ar
    36    17    18   ar
    37    18    19   ar
    38    18    42    1
    39    19    20   ar
    40    19    43    1
    41    20    21   ar
    42    21    22   ar
    43    21    44    1
    44    22    45    1
    45    23    24    1
    46    23    46    1
    47    23    47    1
    48    24    48    1
    49    24    49    1
    50    25    26   ar
    51    25    50    1
    52    26    27   ar
    53    26    51    1
    54    27    28    1
@<TRIPOS>SUBSTRUCTURE
     1 ZINC000192150625        1 TEMP              0 ****  ****    0 ROOT


##########                                Name:    ZINC000011498449
##########                DOCK_Rotatable_Bonds:                   5
##########                         Heavy_Atoms:                  21
##########                    Molecular_Weight:             331.198
##########                DOCK_Rotatable_Bonds:                   5
##########                       Formal_Charge:         1.30385e-07
##########                     HBond_Acceptors:                   7
##########                        HBond_Donors:                   1
##########                         Heavy_Atoms:                  21
##########                          Grid_Score:          -28.270544
##########                     Grid_vdw_energy:          -26.873882
##########                      Grid_es_energy:           -1.396662
##########           Internal_energy_repulsive:            9.673241

@<TRIPOS>MOLECULE
ZINC000011498449
 37 38 1 0 0
SMALL
USER_CHARGES


@<TRIPOS>ATOM
      1 C1         -6.5162    4.0667   52.7654 C.3     1  ZINC000011498449   -0.1500
      2 C2         -5.3361    4.2941   51.8184 C.3     1  ZINC000011498449    0.0700
      3 H3         -5.7093    4.5387   50.8240 H       1  ZINC000011498449    0.0600
      4 C4         -4.4845    3.0214   51.7470 C.3     1  ZINC000011498449    0.0800
      5 N5         -3.2625    3.3230   50.9845 N.am    1  ZINC000011498449   -0.6100
      6 C6         -2.8726    2.5387   49.9602 C.2     1  ZINC000011498449    0.5100
      7 O7         -3.5329    1.5687   49.6538 O.2     1  ZINC000011498449   -0.5300
      8 C8         -1.6162    2.8672   49.1956 C.3     1  ZINC000011498449    0.1000
      9 N9         -1.5471    2.0373   47.9903 N.am    1  ZINC000011498449   -0.7200
     10 C10        -0.9568    2.5144   46.8765 C.2     1  ZINC000011498449    0.5600
     11 O11        -0.4804    3.6328   46.8725 O.2     1  ZINC000011498449   -0.5100
     12 C12        -0.8886    1.6782   45.6607 C.ar    1  ZINC000011498449   -0.1300
     13 C13        -2.0611    1.2974   45.0051 C.ar    1  ZINC000011498449   -0.0600
     14 C14        -1.9911    0.5173   43.8704 C.ar    1  ZINC000011498449   -0.1100
     15 C15        -0.7610    0.1108   43.3797 C.ar    1  ZINC000011498449    0.0000
     16 Cl16       -0.6824   -0.8709   41.9502 Cl      1  ZINC000011498449   -0.0400
     17 C17         0.4060    0.4844   44.0244 C.ar    1  ZINC000011498449   -0.1100
     18 C18         0.3501    1.2698   45.1584 C.ar    1  ZINC000011498449    0.0300
     19 Cl19        1.8138    1.7377   45.9659 Cl      1  ZINC000011498449   -0.0100
     20 C20        -2.4790    4.5064   51.3733 C.3     1  ZINC000011498449    0.0700
     21 C21        -3.4284    5.7066   51.4630 C.3     1  ZINC000011498449    0.0500
     22 O22        -4.5334    5.3720   52.3059 O.3     1  ZINC000011498449   -0.3700
     23 H23        -7.1202    4.9725   52.8172 H       1  ZINC000011498449    0.0700
     24 H24        -7.1266    3.2436   52.3941 H       1  ZINC000011498449    0.0800
     25 H25        -6.1423    3.8220   53.7596 H       1  ZINC000011498449    0.0700
     26 H26        -4.2189    2.7004   52.7542 H       1  ZINC000011498449    0.0800
     27 H27        -5.0448    2.2324   51.2454 H       1  ZINC000011498449    0.1000
     28 H28        -1.6282    3.9196   48.9118 H       1  ZINC000011498449    0.1000
     29 H29        -0.7470    2.6699   49.8229 H       1  ZINC000011498449    0.1000
     30 H30        -1.9262    1.1444   47.9938 H       1  ZINC000011498449    0.4100
     31 H31        -3.0210    1.6130   45.3863 H       1  ZINC000011498449    0.1500
     32 H32        -2.8976    0.2221   43.3630 H       1  ZINC000011498449    0.1500
     33 H33         1.3620    0.1643   43.6370 H       1  ZINC000011498449    0.1500
     34 H34        -2.0115    4.3349   52.3429 H       1  ZINC000011498449    0.0900
     35 H35        -1.7113    4.7007   50.6243 H       1  ZINC000011498449    0.1000
     36 H36        -2.8966    6.5610   51.8820 H       1  ZINC000011498449    0.1100
     37 H37        -3.7938    5.9570   50.4671 H       1  ZINC000011498449    0.0600
@<TRIPOS>BOND
     1     1     2    1
     2     1    23    1
     3     1    24    1
     4     1    25    1
     5     2     3    1
     6     2    22    1
     7     2     4    1
     8     4     5    1
     9     4    26    1
    10     4    27    1
    11     5     6   am
    12     5    20    1
    13     6     7    2
    14     6     8    1
    15     8     9    1
    16     8    28    1
    17     8    29    1
    18     9    10   am
    19     9    30    1
    20    10    11    2
    21    10    12    1
    22    12    18   ar
    23    12    13   ar
    24    13    14   ar
    25    13    31    1
    26    14    15   ar
    27    14    32    1
    28    15    16    1
    29    15    17   ar
    30    17    18   ar
    31    17    33    1
    32    18    19    1
    33    20    21    1
    34    20    34    1
    35    20    35    1
    36    21    22    1
    37    21    36    1
    38    21    37    1
@<TRIPOS>SUBSTRUCTURE
     1 ZINC000011498449        1 TEMP              0 ****  ****    0 ROOT


##########                                Name:    ZINC001011676549
##########                DOCK_Rotatable_Bonds:                   6
##########                         Heavy_Atoms:                  24
##########                    Molecular_Weight:             330.387
##########                DOCK_Rotatable_Bonds:                   6
##########                       Formal_Charge:        -1.49012e-07
##########                     HBond_Acceptors:                   7
##########                        HBond_Donors:                   1
##########                         Heavy_Atoms:                  24
##########                          Grid_Score:          -28.249172
##########                     Grid_vdw_energy:          -27.422653
##########                      Grid_es_energy:           -0.826519
##########           Internal_energy_repulsive:           20.467371

@<TRIPOS>MOLECULE
ZINC001011676549
 46 48 1 0 0
SMALL
USER_CHARGES


@<TRIPOS>ATOM
      1 C1         -1.6103    1.6795   49.3795 C.3     1  ZINC001011676549   -0.1700
      2 C2         -0.8018    2.9502   49.1099 C.3     1  ZINC001011676549    0.1300
      3 H3         -1.1679    3.4376   48.2063 H       1  ZINC001011676549    0.0900
      4 C4         -0.9210    3.9126   50.3103 C.3     1  ZINC001011676549    0.1400
      5 H5         -0.9386    4.9491   49.9734 H       1  ZINC001011676549    0.1100
      6 N6         -2.1144    3.6070   51.1033 N.am    1  ZINC001011676549   -0.7200
      7 C7         -2.6193    4.5310   51.9446 C.2     1  ZINC001011676549    0.5200
      8 O8         -2.0848    5.6149   52.0463 O.2     1  ZINC001011676549   -0.5300
      9 C9         -3.8479    4.2173   52.7589 C.3     1  ZINC001011676549   -0.0900
     10 C10        -4.7910    3.3735   51.9404 C.ar    1  ZINC001011676549   -0.1800
     11 C11        -5.4727    2.3117   52.5140 C.ar    1  ZINC001011676549    0.1600
     12 N12        -6.2926    1.5930   51.7641 N.ar    1  ZINC001011676549   -0.5200
     13 C13        -6.4641    1.8763   50.4884 C.ar    1  ZINC001011676549    0.3000
     14 N14        -5.8329    2.8779   49.9094 N.ar    1  ZINC001011676549   -0.5200
     15 C15        -5.0017    3.6440   50.5976 C.ar    1  ZINC001011676549    0.1600
     16 C16         0.3702    3.6203   51.1196 C.3     1  ZINC001011676549   -0.1400
     17 C17         1.3897    3.3395   49.9878 C.3     1  ZINC001011676549    0.1000
     18 N18         0.6210    2.6141   48.9554 N.am    1  ZINC001011676549   -0.6100
     19 C19         1.1389    1.7817   48.0305 C.2     1  ZINC001011676549    0.5800
     20 O20         2.3372    1.5760   48.0005 O.2     1  ZINC001011676549   -0.5300
     21 C21         0.2548    1.1220   47.0573 C.2     1  ZINC001011676549   -0.1400
     22 C22        -0.3786    1.8631   46.1663 C.2     1  ZINC001011676549   -0.1500
     23 C23        -1.3075    1.2777   45.1404 C.3     1  ZINC001011676549    0.0900
     24 O24        -1.1082   -0.1342   45.0465 O.3     1  ZINC001011676549   -0.3800
     25 C25        -1.1386   -0.7919   46.3189 C.3     1  ZINC001011676549    0.0600
     26 C26         0.1078   -0.3742   47.1071 C.3     1  ZINC001011676549   -0.1100
     27 H27        -1.2310    1.1910   50.2771 H       1  ZINC001011676549    0.0600
     28 H28        -2.6590    1.9398   49.5232 H       1  ZINC001011676549    0.0700
     29 H29        -1.5171    1.0026   48.5304 H       1  ZINC001011676549    0.0800
     30 H30        -2.5412    2.7397   51.0228 H       1  ZINC001011676549    0.4100
     31 H31        -3.5588    3.6717   53.6571 H       1  ZINC001011676549    0.1100
     32 H32        -4.3435    5.1460   53.0414 H       1  ZINC001011676549    0.1100
     33 H33        -5.3364    2.0740   53.5586 H       1  ZINC001011676549    0.1700
     34 H34        -7.1397    1.2713   49.9019 H       1  ZINC001011676549    0.2000
     35 H35        -4.4879    4.4635   50.1171 H       1  ZINC001011676549    0.1700
     36 H36         0.6680    4.4888   51.7071 H       1  ZINC001011676549    0.0900
     37 H37         0.2424    2.7450   51.7564 H       1  ZINC001011676549    0.0800
     38 H38         1.7754    4.2755   49.5836 H       1  ZINC001011676549    0.0800
     39 H39         2.2066    2.7200   50.3581 H       1  ZINC001011676549    0.0800
     40 H40        -0.2231    2.9318   46.1755 H       1  ZINC001011676549    0.1200
     41 H41        -2.3389    1.4786   45.4301 H       1  ZINC001011676549    0.0700
     42 H42        -1.1105    1.7357   44.1711 H       1  ZINC001011676549    0.1100
     43 H43        -2.0362   -0.4970   46.8625 H       1  ZINC001011676549    0.0600
     44 H44        -1.1334   -1.8722   46.1731 H       1  ZINC001011676549    0.1000
     45 H45         0.9882   -0.8463   46.6712 H       1  ZINC001011676549    0.0900
     46 H46         0.0035   -0.6898   48.1453 H       1  ZINC001011676549    0.0900
@<TRIPOS>BOND
     1     1     2    1
     2     1    27    1
     3     1    28    1
     4     1    29    1
     5     2     3    1
     6     2    18    1
     7     2     4    1
     8     4     5    1
     9     4     6    1
    10     4    16    1
    11     6     7   am
    12     6    30    1
    13     7     8    2
    14     7     9    1
    15     9    10    1
    16     9    31    1
    17     9    32    1
    18    10    15   ar
    19    10    11   ar
    20    11    12   ar
    21    11    33    1
    22    12    13   ar
    23    13    14   ar
    24    13    34    1
    25    14    15   ar
    26    15    35    1
    27    16    17    1
    28    16    36    1
    29    16    37    1
    30    17    18    1
    31    17    38    1
    32    17    39    1
    33    18    19   am
    34    19    20    2
    35    19    21    1
    36    21    26    1
    37    21    22    2
    38    22    23    1
    39    22    40    1
    40    23    24    1
    41    23    41    1
    42    23    42    1
    43    24    25    1
    44    25    26    1
    45    25    43    1
    46    25    44    1
    47    26    45    1
    48    26    46    1
@<TRIPOS>SUBSTRUCTURE
     1 ZINC001011676549        1 TEMP              0 ****  ****    0 ROOT


##########                                Name:    ZINC000028372981
##########                DOCK_Rotatable_Bonds:                   7
##########                         Heavy_Atoms:                  28
##########                    Molecular_Weight:             380.443
##########                DOCK_Rotatable_Bonds:                   7
##########                       Formal_Charge:         1.78814e-07
##########                     HBond_Acceptors:                   6
##########                        HBond_Donors:                   1
##########                         Heavy_Atoms:                  28
##########                          Grid_Score:          -28.245596
##########                     Grid_vdw_energy:          -26.814825
##########                      Grid_es_energy:           -1.430771
##########           Internal_energy_repulsive:          167.968521

@<TRIPOS>MOLECULE
ZINC000028372981
 52 54 1 0 0
SMALL
USER_CHARGES


@<TRIPOS>ATOM
      1 C1         -3.8111    3.2908   50.3386 C.3     1  ZINC000028372981   -0.1800
      2 C2         -4.8416    2.2766   50.7633 C.2     1  ZINC000028372981    0.5200
      3 O3         -5.0621    1.3082   50.0673 O.2     1  ZINC000028372981   -0.5100
      4 N4         -5.5184    2.4459   51.9165 N.am    1  ZINC000028372981   -0.5500
      5 C5         -5.3379    3.5711   52.8372 C.3     1  ZINC000028372981    0.1000
      6 C6         -6.3237    3.3129   53.9884 C.3     1  ZINC000028372981   -0.0900
      7 C7         -7.0093    2.0169   53.6166 C.ar    1  ZINC000028372981   -0.1500
      8 C8         -7.9887    1.2979   54.2643 C.ar    1  ZINC000028372981    0.0000
      9 C9         -8.4636    0.1059   53.7098 C.ar    1  ZINC000028372981   -0.1600
     10 C10        -9.5087   -0.6708   54.4018 C.2     1  ZINC000028372981    0.5200
     11 O11        -9.3352   -1.8509   54.6337 O.2     1  ZINC000028372981   -0.5000
     12 O12       -10.6560   -0.0721   54.7769 O.3     1  ZINC000028372981   -0.3200
     13 C13       -11.7695   -0.1399   53.8475 C.3     1  ZINC000028372981    0.0700
     14 H14       -11.6822   -1.0414   53.2411 H       1  ZINC000028372981    0.1200
     15 C15       -11.7504    1.0903   52.9380 C.3     1  ZINC000028372981   -0.1700
     16 C16       -13.0647   -0.1755   54.6171 C.2     1  ZINC000028372981    0.5200
     17 O17       -14.0437    0.3940   54.1834 O.2     1  ZINC000028372981   -0.4900
     18 N18       -13.1352   -0.8405   55.7873 N.am    1  ZINC000028372981   -0.6600
     19 C19       -14.3378   -0.8736   56.5018 C.ar    1  ZINC000028372981    0.1500
     20 C20       -15.4598   -0.2229   56.0061 C.ar    1  ZINC000028372981   -0.1300
     21 C21       -16.6456   -0.2579   56.7137 C.ar    1  ZINC000028372981   -0.1000
     22 C22       -16.7162   -0.9404   57.9140 C.ar    1  ZINC000028372981   -0.1300
     23 C23       -15.6006   -1.5900   58.4103 C.ar    1  ZINC000028372981   -0.0700
     24 C24       -15.6823   -2.3331   59.7187 C.3     1  ZINC000028372981   -0.1200
     25 C25       -14.4119   -1.5580   57.7082 C.ar    1  ZINC000028372981   -0.1200
     26 C26       -13.1966   -2.2652   58.2501 C.3     1  ZINC000028372981   -0.1200
     27 C27        -7.9444   -0.3415   52.4913 C.ar    1  ZINC000028372981   -0.0200
     28 C28        -6.9712    0.3852   51.8493 C.ar    1  ZINC000028372981   -0.1800
     29 C29        -6.4909    1.5757   52.4056 C.ar    1  ZINC000028372981    0.1900
     30 H30        -3.0295    3.3537   51.0957 H       1  ZINC000028372981    0.1000
     31 H31        -3.3726    2.9871   49.3880 H       1  ZINC000028372981    0.1000
     32 H32        -4.2859    4.2654   50.2248 H       1  ZINC000028372981    0.1000
     33 H33        -4.3149    3.5916   53.2131 H       1  ZINC000028372981    0.0900
     34 H34        -5.5769    4.5101   52.3381 H       1  ZINC000028372981    0.0900
     35 H35        -5.7876    3.2030   54.9310 H       1  ZINC000028372981    0.1000
     36 H36        -7.0495    4.1234   54.0566 H       1  ZINC000028372981    0.1000
     37 H37        -8.3872    1.6528   55.2032 H       1  ZINC000028372981    0.1400
     38 H38       -11.8376    1.9919   53.5444 H       1  ZINC000028372981    0.0800
     39 H39       -10.8135    1.1161   52.3814 H       1  ZINC000028372981    0.0800
     40 H40       -12.5862    1.0394   52.2403 H       1  ZINC000028372981    0.0800
     41 H41       -12.3522   -1.2960   56.1341 H       1  ZINC000028372981    0.4100
     42 H42       -15.4065    0.3064   55.0661 H       1  ZINC000028372981    0.1400
     43 H43       -17.5186    0.2481   56.3286 H       1  ZINC000028372981    0.1300
     44 H44       -17.6447   -0.9666   58.4652 H       1  ZINC000028372981    0.1200
     45 H45       -15.9758   -3.3661   59.5322 H       1  ZINC000028372981    0.0700
     46 H46       -14.7085   -2.3148   60.2082 H       1  ZINC000028372981    0.0700
     47 H47       -16.4214   -1.8559   60.3622 H       1  ZINC000028372981    0.0700
     48 H48       -13.1768   -3.2900   57.8791 H       1  ZINC000028372981    0.0700
     49 H49       -12.2969   -1.7434   57.9240 H       1  ZINC000028372981    0.0600
     50 H50       -13.2368   -2.2740   59.3393 H       1  ZINC000028372981    0.0800
     51 H51        -8.3092   -1.2591   52.0541 H       1  ZINC000028372981    0.1500
     52 H52        -6.5735    0.0345   50.9084 H       1  ZINC000028372981    0.1500
@<TRIPOS>BOND
     1     1     2    1
     2     1    30    1
     3     1    31    1
     4     1    32    1
     5     2     3    2
     6     2     4   am
     7     4    29    1
     8     4     5    1
     9     5     6    1
    10     5    33    1
    11     5    34    1
    12     6     7    1
    13     6    35    1
    14     6    36    1
    15     7    29   ar
    16     7     8   ar
    17     8     9   ar
    18     8    37    1
    19     9    10    1
    20     9    27   ar
    21    10    11    2
    22    10    12    1
    23    12    13    1
    24    13    14    1
    25    13    15    1
    26    13    16    1
    27    15    38    1
    28    15    39    1
    29    15    40    1
    30    16    17    2
    31    16    18   am
    32    18    19    1
    33    18    41    1
    34    19    25   ar
    35    19    20   ar
    36    20    21   ar
    37    20    42    1
    38    21    22   ar
    39    21    43    1
    40    22    23   ar
    41    22    44    1
    42    23    24    1
    43    23    25   ar
    44    24    45    1
    45    24    46    1
    46    24    47    1
    47    25    26    1
    48    26    48    1
    49    26    49    1
    50    26    50    1
    51    27    28   ar
    52    27    51    1
    53    28    29   ar
    54    28    52    1
@<TRIPOS>SUBSTRUCTURE
     1 ZINC000028372981        1 TEMP              0 ****  ****    0 ROOT


##########                                Name:    ZINC000517001504
##########                DOCK_Rotatable_Bonds:                   5
##########                         Heavy_Atoms:                  29
##########                    Molecular_Weight:             403.401
##########                DOCK_Rotatable_Bonds:                   5
##########                       Formal_Charge:          -0.0200002
##########                     HBond_Acceptors:                   7
##########                        HBond_Donors:                   0
##########                         Heavy_Atoms:                  29
##########                          Grid_Score:          -28.177996
##########                     Grid_vdw_energy:          -27.909414
##########                      Grid_es_energy:           -0.268582
##########           Internal_energy_repulsive:           34.441380

@<TRIPOS>MOLECULE
ZINC000517001504
 49 52 1 0 0
SMALL
USER_CHARGES


@<TRIPOS>ATOM
      1 O1         -6.2319    5.6160   53.5991 O.2     1  ZINC000517001504   -0.5200
      2 C2         -5.9157    4.7982   52.7611 C.2     1  ZINC000517001504    0.5400
      3 N3         -4.6266    4.4249   52.6366 N.am    1  ZINC000517001504   -0.6100
      4 C4         -3.5845    5.0000   53.5018 C.3     1  ZINC000517001504    0.0600
      5 C5         -2.4375    5.4950   52.6134 C.3     1  ZINC000517001504    0.0500
      6 O6         -2.0274    4.4387   51.7419 O.3     1  ZINC000517001504   -0.3700
      7 C7         -3.0420    4.0014   50.8345 C.3     1  ZINC000517001504    0.1200
      8 H8         -3.3832    4.8458   50.2356 H       1  ZINC000517001504    0.0800
      9 C9         -2.4815    2.9355   49.9286 C.ar    1  ZINC000517001504   -0.0600
     10 C10        -3.1627    2.5756   48.7808 C.ar    1  ZINC000517001504   -0.0900
     11 C11        -2.6486    1.5979   47.9498 C.ar    1  ZINC000517001504   -0.0700
     12 C12        -1.4531    0.9803   48.2663 C.ar    1  ZINC000517001504   -0.1800
     13 C13        -0.8928   -0.0861   47.3606 C.3     1  ZINC000517001504    0.5100
     14 F14        -1.1576   -1.3470   47.9056 F       1  ZINC000517001504   -0.1800
     15 F15        -1.4905    0.0119   46.0996 F       1  ZINC000517001504   -0.1800
     16 F16         0.4899    0.0871   47.2362 F       1  ZINC000517001504   -0.1800
     17 C17        -0.7712    1.3410   49.4134 C.ar    1  ZINC000517001504   -0.0700
     18 C18        -1.2834    2.3216   50.2424 C.ar    1  ZINC000517001504   -0.1000
     19 C19        -4.2208    3.4256   51.6356 C.3     1  ZINC000517001504    0.0900
     20 C20        -6.9649    4.1949   51.8633 C.3     1  ZINC000517001504   -0.0600
     21 C21        -7.1064    2.7057   52.0457 C.ar    1  ZINC000517001504   -0.0700
     22 C22        -6.7716    1.8483   51.0144 C.ar    1  ZINC000517001504   -0.1200
     23 C23        -6.9013    0.4822   51.1818 C.ar    1  ZINC000517001504   -0.1100
     24 C24        -7.3655   -0.0264   52.3804 C.ar    1  ZINC000517001504   -0.1100
     25 C25        -7.6993    0.8311   53.4119 C.ar    1  ZINC000517001504   -0.1100
     26 C26        -7.5655    2.1969   53.2462 C.ar    1  ZINC000517001504   -0.1000
     27 C27        -8.3043    4.9515   51.8841 C.3     1  ZINC000517001504   -0.1600
     28 C28        -7.7514    5.7873   50.7467 C.2     1  ZINC000517001504    0.3600
     29 O29        -7.9495    6.8962   50.3119 O.2     1  ZINC000517001504   -0.4100
     30 C30        -6.8416    4.6278   50.3922 C.3     1  ZINC000517001504   -0.1900
     31 H31        -3.9970    5.8351   54.0680 H       1  ZINC000517001504    0.1000
     32 H32        -3.2149    4.2377   54.1877 H       1  ZINC000517001504    0.0800
     33 H33        -2.7766    6.3448   52.0210 H       1  ZINC000517001504    0.0600
     34 H34        -1.5976    5.7982   53.2385 H       1  ZINC000517001504    0.1100
     35 H35        -4.0967    3.0581   48.5335 H       1  ZINC000517001504    0.1400
     36 H36        -3.1812    1.3162   47.0534 H       1  ZINC000517001504    0.1400
     37 H37         0.1630    0.8588   49.6604 H       1  ZINC000517001504    0.1400
     38 H38        -0.7505    2.6034   51.1385 H       1  ZINC000517001504    0.1400
     39 H39        -3.9128    2.5052   52.1316 H       1  ZINC000517001504    0.0800
     40 H40        -5.0549    3.2204   50.9648 H       1  ZINC000517001504    0.1100
     41 H41        -6.4091    2.2455   50.0779 H       1  ZINC000517001504    0.1300
     42 H42        -6.6405   -0.1878   50.3758 H       1  ZINC000517001504    0.1300
     43 H43        -7.4675   -1.0935   52.5109 H       1  ZINC000517001504    0.1300
     44 H44        -8.0622    0.4339   54.3484 H       1  ZINC000517001504    0.1300
     45 H45        -7.8263    2.8669   54.0522 H       1  ZINC000517001504    0.1200
     46 H46        -9.1585    4.3368   51.6002 H       1  ZINC000517001504    0.1300
     47 H47        -8.4733    5.5168   52.8005 H       1  ZINC000517001504    0.1100
     48 H48        -5.8342    4.9328   50.1088 H       1  ZINC000517001504    0.1000
     49 H49        -7.2855    3.9223   49.6898 H       1  ZINC000517001504    0.1400
@<TRIPOS>BOND
     1     1     2    2
     2     2     3   am
     3     2    20    1
     4     3    19    1
     5     3     4    1
     6     4     5    1
     7     4    31    1
     8     4    32    1
     9     5     6    1
    10     5    33    1
    11     5    34    1
    12     6     7    1
    13     7     8    1
    14     7     9    1
    15     7    19    1
    16     9    18   ar
    17     9    10   ar
    18    10    11   ar
    19    10    35    1
    20    11    12   ar
    21    11    36    1
    22    12    13    1
    23    12    17   ar
    24    13    14    1
    25    13    15    1
    26    13    16    1
    27    17    18   ar
    28    17    37    1
    29    18    38    1
    30    19    39    1
    31    19    40    1
    32    20    30    1
    33    20    21    1
    34    20    27    1
    35    21    26   ar
    36    21    22   ar
    37    22    23   ar
    38    22    41    1
    39    23    24   ar
    40    23    42    1
    41    24    25   ar
    42    24    43    1
    43    25    26   ar
    44    25    44    1
    45    26    45    1
    46    27    28    1
    47    27    46    1
    48    27    47    1
    49    28    29    2
    50    28    30    1
    51    30    48    1
    52    30    49    1
@<TRIPOS>SUBSTRUCTURE
     1 ZINC000517001504        1 TEMP              0 ****  ****    0 ROOT


##########                                Name:    ZINC000928803822
##########                DOCK_Rotatable_Bonds:                   7
##########                         Heavy_Atoms:                  21
##########                    Molecular_Weight:             364.165
##########                DOCK_Rotatable_Bonds:                   7
##########                       Formal_Charge:         -0.00999978
##########                     HBond_Acceptors:                   7
##########                        HBond_Donors:                   1
##########                         Heavy_Atoms:                  21
##########                          Grid_Score:          -28.139765
##########                     Grid_vdw_energy:          -27.448700
##########                      Grid_es_energy:           -0.691065
##########           Internal_energy_repulsive:            5.065539

@<TRIPOS>MOLECULE
ZINC000928803822
 34 34 1 0 0
SMALL
USER_CHARGES


@<TRIPOS>ATOM
      1 C1         -7.1604    1.3273   52.0641 C.3     1  ZINC000928803822    0.0900
      2 N2         -6.9463    2.6355   51.4403 N.pl3   1  ZINC000928803822   -0.6300
      3 C3         -8.0938    3.4735   51.0836 C.3     1  ZINC000928803822    0.0900
      4 C4         -5.6479    3.0839   51.1859 C.ar    1  ZINC000928803822    0.2200
      5 C5         -5.1750    4.2326   51.8088 C.ar    1  ZINC000928803822   -0.1500
      6 C6         -3.8901    4.6806   51.5601 C.ar    1  ZINC000928803822   -0.0500
      7 Br7        -3.2554    6.2444   52.4131 Br      1  ZINC000928803822   -0.0400
      8 C8         -3.0694    3.9892   50.6912 C.ar    1  ZINC000928803822   -0.1200
      9 C9         -3.5355    2.8342   50.0608 C.ar    1  ZINC000928803822   -0.0800
     10 C10        -2.6587    2.0920   49.1299 C.2     1  ZINC000928803822    0.5700
     11 O11        -3.0262    1.8743   47.9918 O.2     1  ZINC000928803822   -0.5100
     12 N12        -1.4520    1.6567   49.5432 N.am    1  ZINC000928803822   -0.7200
     13 C13        -0.5839    0.9197   48.6215 C.3     1  ZINC000928803822    0.1100
     14 H14        -0.7115    1.3102   47.6118 H       1  ZINC000928803822    0.1400
     15 C15        -0.9573   -0.5638   48.6455 C.3     1  ZINC000928803822   -0.0300
     16 C16        -1.1925   -1.0330   47.2703 C.1     1  ZINC000928803822    0.2000
     17 N17        -1.3741   -1.3950   46.2090 N.1     1  ZINC000928803822   -0.4000
     18 C18         0.8748    1.0856   49.0520 C.3     1  ZINC000928803822    0.4400
     19 F19         1.2185    2.4414   49.0223 F       1  ZINC000928803822   -0.1800
     20 F20         1.0368    0.5917   50.3509 F       1  ZINC000928803822   -0.1700
     21 F21         1.7030    0.3754   48.1764 F       1  ZINC000928803822   -0.1600
     22 C22        -4.8290    2.3796   50.3160 C.ar    1  ZINC000928803822   -0.1200
     23 H23        -7.2444    0.5649   51.2896 H       1  ZINC000928803822    0.0600
     24 H24        -6.3180    1.0928   52.7149 H       1  ZINC000928803822    0.0700
     25 H25        -8.0781    1.3508   52.6518 H       1  ZINC000928803822    0.0700
     26 H26        -8.3475    4.1192   51.9243 H       1  ZINC000928803822    0.0500
     27 H27        -7.8413    4.0861   50.2181 H       1  ZINC000928803822    0.0700
     28 H28        -8.9465    2.8386   50.8429 H       1  ZINC000928803822    0.0700
     29 H29        -5.8128    4.7776   52.4890 H       1  ZINC000928803822    0.1400
     30 H30        -2.0668    4.3421   50.4992 H       1  ZINC000928803822    0.1300
     31 H31        -1.1582    1.8314   50.4510 H       1  ZINC000928803822    0.4100
     32 H32        -0.1432   -1.1362   49.0905 H       1  ZINC000928803822    0.1400
     33 H33        -1.8630   -0.7010   49.2362 H       1  ZINC000928803822    0.1300
     34 H34        -5.1949    1.4867   49.8310 H       1  ZINC000928803822    0.1500
@<TRIPOS>BOND
     1     1     2    1
     2     1    23    1
     3     1    24    1
     4     1    25    1
     5     2     3    1
     6     2     4    1
     7     3    26    1
     8     3    27    1
     9     3    28    1
    10     4    22   ar
    11     4     5   ar
    12     5     6   ar
    13     5    29    1
    14     6     7    1
    15     6     8   ar
    16     8     9   ar
    17     8    30    1
    18     9    10    1
    19     9    22   ar
    20    10    11    2
    21    10    12   am
    22    12    13    1
    23    12    31    1
    24    13    14    1
    25    13    15    1
    26    13    18    1
    27    15    16    1
    28    15    32    1
    29    15    33    1
    30    16    17    3
    31    18    19    1
    32    18    20    1
    33    18    21    1
    34    22    34    1
@<TRIPOS>SUBSTRUCTURE
     1 ZINC000928803822        1 TEMP              0 ****  ****    0 ROOT


##########                                Name:    ZINC001110536231
##########                DOCK_Rotatable_Bonds:                   8
##########                         Heavy_Atoms:                  24
##########                    Molecular_Weight:             329.442
##########                DOCK_Rotatable_Bonds:                   8
##########                       Formal_Charge:          -0.0400001
##########                     HBond_Acceptors:                   5
##########                        HBond_Donors:                   1
##########                         Heavy_Atoms:                  24
##########                          Grid_Score:          -28.126520
##########                     Grid_vdw_energy:          -27.440308
##########                      Grid_es_energy:           -0.686213
##########           Internal_energy_repulsive:           33.893837

@<TRIPOS>MOLECULE
ZINC001110536231
 51 53 1 0 0
SMALL
USER_CHARGES


@<TRIPOS>ATOM
      1 C1          4.4547    4.0531   54.0407 C.3     1  ZINC001110536231   -0.1300
      2 C2          3.2201    4.5478   53.2844 C.3     1  ZINC001110536231   -0.1000
      3 C3          2.9698    3.6576   52.0944 C.2     1  ZINC001110536231   -0.0200
      4 C4          3.3667    2.2046   52.1437 C.3     1  ZINC001110536231   -0.1300
      5 C5          2.3986    4.1542   51.0008 C.2     1  ZINC001110536231   -0.2400
      6 C6          2.1543    3.2851   49.8394 C.2     1  ZINC001110536231    0.5400
      7 O7          2.8618    3.3735   48.8543 O.2     1  ZINC001110536231   -0.5300
      8 N8          1.1464    2.3908   49.8672 N.am    1  ZINC001110536231   -0.7300
      9 C9          0.9042    1.5240   48.7112 C.3     1  ZINC001110536231    0.1100
     10 H10         1.8351    1.0697   48.3720 H       1  ZINC001110536231    0.1000
     11 C11         0.2363    2.3200   47.5634 C.3     1  ZINC001110536231   -0.1600
     12 C12        -1.1324    1.6004   47.3693 C.3     1  ZINC001110536231    0.0500
     13 H13        -1.9071    2.1874   46.8759 H       1  ZINC001110536231    0.1200
     14 C14        -0.7822    0.2420   46.6902 C.3     1  ZINC001110536231   -0.1200
     15 C15        -0.1060   -0.5661   47.8247 C.3     1  ZINC001110536231   -0.1100
     16 C16        -0.1470    0.4271   49.0587 C.3     1  ZINC001110536231    0.0400
     17 H17        -0.0568   -0.0380   50.0403 H       1  ZINC001110536231    0.1200
     18 N18        -1.4336    1.1684   48.7808 N.3     1  ZINC001110536231   -0.4900
     19 C19        -1.5814    2.3213   49.6792 C.3     1  ZINC001110536231    0.0600
     20 C20        -3.0348    2.4958   50.0376 C.ar    1  ZINC001110536231    0.0100
     21 C21        -3.5718    3.7611   50.2288 C.ar    1  ZINC001110536231   -0.2100
     22 C22        -4.9075    3.8857   50.5560 C.ar    1  ZINC001110536231    0.1400
     23 N23        -5.6738    2.8198   50.6879 N.ar    1  ZINC001110536231   -0.5400
     24 C24        -5.1986    1.5976   50.5136 C.ar    1  ZINC001110536231    0.3200
     25 O25        -6.0225    0.5294   50.6587 O.3     1  ZINC001110536231   -0.3100
     26 C26        -6.9463    0.5659   51.7484 C.3     1  ZINC001110536231    0.0400
     27 C27        -3.8659    1.3977   50.1780 C.ar    1  ZINC001110536231   -0.1700
     28 H28         4.6357    4.6969   54.9013 H       1  ZINC001110536231    0.0500
     29 H29         4.2872    3.0310   54.3803 H       1  ZINC001110536231    0.0700
     30 H30         5.3206    4.0788   53.3792 H       1  ZINC001110536231    0.0400
     31 H31         2.3542    4.5220   53.9459 H       1  ZINC001110536231    0.0900
     32 H32         3.3876    5.5699   52.9447 H       1  ZINC001110536231    0.0600
     33 H33         2.5362    1.6139   52.5302 H       1  ZINC001110536231    0.0800
     34 H34         3.6196    1.8628   51.1400 H       1  ZINC001110536231    0.0700
     35 H35         4.2316    2.0862   52.7964 H       1  ZINC001110536231    0.0700
     36 H36         2.1141    5.1954   50.9655 H       1  ZINC001110536231    0.1200
     37 H37         0.5813    2.3211   50.6525 H       1  ZINC001110536231    0.4000
     38 H38         0.0853    3.3595   47.8545 H       1  ZINC001110536231    0.0700
     39 H39         0.8347    2.2579   46.6545 H       1  ZINC001110536231    0.0800
     40 H40        -1.6869   -0.2604   46.3478 H       1  ZINC001110536231    0.0700
     41 H41        -0.0899    0.3942   45.8622 H       1  ZINC001110536231    0.0700
     42 H42        -0.6755   -1.4691   48.0446 H       1  ZINC001110536231    0.0800
     43 H43         0.9215   -0.8145   47.5589 H       1  ZINC001110536231    0.0700
     44 H44        -1.0013    2.1518   50.5863 H       1  ZINC001110536231    0.0900
     45 H45        -1.2201    3.2201   49.1794 H       1  ZINC001110536231    0.0700
     46 H46        -2.9515    4.6389   50.1232 H       1  ZINC001110536231    0.1300
     47 H47        -5.3303    4.8681   50.7061 H       1  ZINC001110536231    0.1600
     48 H48        -7.5430   -0.3462   51.7495 H       1  ZINC001110536231    0.1000
     49 H49        -6.3979    0.6426   52.6873 H       1  ZINC001110536231    0.0600
     50 H50        -7.6026    1.4293   51.6395 H       1  ZINC001110536231    0.0600
     51 H51        -3.4813    0.3985   50.0361 H       1  ZINC001110536231    0.1400
@<TRIPOS>BOND
     1     1     2    1
     2     1    28    1
     3     1    29    1
     4     1    30    1
     5     2     3    1
     6     2    31    1
     7     2    32    1
     8     3     4    1
     9     3     5    2
    10     4    33    1
    11     4    34    1
    12     4    35    1
    13     5     6    1
    14     5    36    1
    15     6     7    2
    16     6     8   am
    17     8     9    1
    18     8    37    1
    19     9    10    1
    20     9    16    1
    21     9    11    1
    22    11    12    1
    23    11    38    1
    24    11    39    1
    25    12    13    1
    26    12    18    1
    27    12    14    1
    28    14    15    1
    29    14    40    1
    30    14    41    1
    31    15    16    1
    32    15    42    1
    33    15    43    1
    34    16    17    1
    35    16    18    1
    36    18    19    1
    37    19    20    1
    38    19    44    1
    39    19    45    1
    40    20    27   ar
    41    20    21   ar
    42    21    22   ar
    43    21    46    1
    44    22    23   ar
    45    22    47    1
    46    23    24   ar
    47    24    25    1
    48    24    27   ar
    49    25    26    1
    50    26    48    1
    51    26    49    1
    52    26    50    1
    53    27    51    1
@<TRIPOS>SUBSTRUCTURE
     1 ZINC001110536231        1 TEMP              0 ****  ****    0 ROOT


##########                                Name:    ZINC000464706598
##########                DOCK_Rotatable_Bonds:                   4
##########                         Heavy_Atoms:                  26
##########                    Molecular_Weight:             412.286
##########                DOCK_Rotatable_Bonds:                   4
##########                       Formal_Charge:           0.0100001
##########                     HBond_Acceptors:                   5
##########                        HBond_Donors:                   0
##########                         Heavy_Atoms:                  26
##########                          Grid_Score:          -28.094770
##########                     Grid_vdw_energy:          -27.171497
##########                      Grid_es_energy:           -0.923272
##########           Internal_energy_repulsive:           58.038666

@<TRIPOS>MOLECULE
ZINC000464706598
 44 47 1 0 0
SMALL
USER_CHARGES


@<TRIPOS>ATOM
      1 O1         -0.2496    3.3720   47.7251 O.2     1  ZINC000464706598   -0.5000
      2 C2         -0.8607    2.4907   48.2985 C.2     1  ZINC000464706598    0.5900
      3 C3         -1.7273    2.8200   49.4446 C.2     1  ZINC000464706598   -0.2800
      4 C4         -3.1065    2.7619   49.4723 C.2     1  ZINC000464706598    0.1300
      5 N5         -3.5000    3.1405   50.7019 N.pl3   1  ZINC000464706598   -0.3100
      6 C6         -4.8259    3.2204   51.1495 C.ar    1  ZINC000464706598    0.1700
      7 C7         -5.8735    3.0824   50.2488 C.ar    1  ZINC000464706598   -0.1300
      8 C8         -7.1790    3.1610   50.6925 C.ar    1  ZINC000464706598   -0.0600
      9 C9         -7.4434    3.3776   52.0332 C.ar    1  ZINC000464706598   -0.1000
     10 Br10       -9.2321    3.4853   52.6371 Br      1  ZINC000464706598   -0.0400
     11 C11        -6.4013    3.5149   52.9330 C.ar    1  ZINC000464706598   -0.0700
     12 C12        -5.0940    3.4319   52.4953 C.ar    1  ZINC000464706598   -0.1100
     13 N13        -2.3616    3.4406   51.4584 N.2     1  ZINC000464706598   -0.2800
     14 C14        -1.3017    3.2484   50.7223 C.2     1  ZINC000464706598    0.0700
     15 N15        -0.7500    1.2135   47.8824 N.am    1  ZINC000464706598   -0.6100
     16 C16        -1.4844    0.1310   48.5564 C.3     1  ZINC000464706598    0.0400
     17 C17        -0.4941   -0.9910   48.8889 C.3     1  ZINC000464706598    0.0500
     18 O18         0.2237   -1.3512   47.7062 O.3     1  ZINC000464706598   -0.3700
     19 C19         1.0212   -0.2970   47.1618 C.3     1  ZINC000464706598    0.0500
     20 C20         0.1043    0.8613   46.7372 C.3     1  ZINC000464706598    0.1600
     21 H21        -0.5127    0.5509   45.8938 H       1  ZINC000464706598    0.0900
     22 C22         0.9398    2.0520   46.3436 C.ar    1  ZINC000464706598   -0.0500
     23 C23         0.6045    2.7924   45.2253 C.ar    1  ZINC000464706598   -0.1000
     24 C24         1.3708    3.8847   44.8643 C.ar    1  ZINC000464706598   -0.1100
     25 C25         2.4723    4.2370   45.6218 C.ar    1  ZINC000464706598   -0.1200
     26 C26         2.8070    3.4973   46.7405 C.ar    1  ZINC000464706598   -0.1100
     27 C27         2.0381    2.4075   47.1040 C.ar    1  ZINC000464706598   -0.1000
     28 H28        -3.7508    2.4674   48.6571 H       1  ZINC000464706598    0.1900
     29 H29        -5.6677    2.9140   49.2020 H       1  ZINC000464706598    0.1400
     30 H30        -7.9942    3.0538   49.9922 H       1  ZINC000464706598    0.1500
     31 H31        -6.6103    3.6836   53.9790 H       1  ZINC000464706598    0.1500
     32 H32        -4.2809    3.5388   53.1980 H       1  ZINC000464706598    0.1500
     33 H33        -0.2782    3.3971   51.0331 H       1  ZINC000464706598    0.2100
     34 H34        -1.9334    0.5085   49.4750 H       1  ZINC000464706598    0.1200
     35 H35        -2.2632   -0.2505   47.8961 H       1  ZINC000464706598    0.0800
     36 H36         0.2065   -0.6449   49.6487 H       1  ZINC000464706598    0.0600
     37 H37        -1.0385   -1.8581   49.2626 H       1  ZINC000464706598    0.1100
     38 H38         1.7274    0.0517   47.9153 H       1  ZINC000464706598    0.0600
     39 H39         1.5670   -0.6649   46.2929 H       1  ZINC000464706598    0.1100
     40 H40        -0.2560    2.5172   44.6336 H       1  ZINC000464706598    0.1100
     41 H41         1.1093    4.4627   43.9903 H       1  ZINC000464706598    0.1200
     42 H42         3.0714    5.0900   45.3393 H       1  ZINC000464706598    0.1200
     43 H43         3.6677    3.7723   47.3321 H       1  ZINC000464706598    0.1200
     44 H44         2.2996    1.8295   47.9781 H       1  ZINC000464706598    0.1100
@<TRIPOS>BOND
     1     1     2    2
     2     2     3    1
     3     2    15   am
     4     3    14    1
     5     3     4    2
     6     4     5    1
     7     4    28    1
     8     5     6    1
     9     5    13    1
    10     6    12   ar
    11     6     7   ar
    12     7     8   ar
    13     7    29    1
    14     8     9   ar
    15     8    30    1
    16     9    10    1
    17     9    11   ar
    18    11    12   ar
    19    11    31    1
    20    12    32    1
    21    13    14    2
    22    14    33    1
    23    15    20    1
    24    15    16    1
    25    16    17    1
    26    16    34    1
    27    16    35    1
    28    17    18    1
    29    17    36    1
    30    17    37    1
    31    18    19    1
    32    19    20    1
    33    19    38    1
    34    19    39    1
    35    20    21    1
    36    20    22    1
    37    22    27   ar
    38    22    23   ar
    39    23    24   ar
    40    23    40    1
    41    24    25   ar
    42    24    41    1
    43    25    26   ar
    44    25    42    1
    45    26    27   ar
    46    26    43    1
    47    27    44    1
@<TRIPOS>SUBSTRUCTURE
     1 ZINC000464706598        1 TEMP              0 ****  ****    0 ROOT


##########                                Name:    ZINC000455156110
##########                DOCK_Rotatable_Bonds:                   4
##########                         Heavy_Atoms:                  27
##########                    Molecular_Weight:             370.424
##########                DOCK_Rotatable_Bonds:                   4
##########                       Formal_Charge:           0.0100002
##########                     HBond_Acceptors:                   6
##########                        HBond_Donors:                   1
##########                         Heavy_Atoms:                  27
##########                          Grid_Score:          -28.035492
##########                     Grid_vdw_energy:          -26.947149
##########                      Grid_es_energy:           -1.088343
##########           Internal_energy_repulsive:           44.339710

@<TRIPOS>MOLECULE
ZINC000455156110
 50 53 1 0 0
SMALL
USER_CHARGES


@<TRIPOS>ATOM
      1 C1        -10.6475   -2.7328   59.3752 C.3     1  ZINC000455156110    0.0300
      2 O2         -9.9565   -1.4962   59.5637 O.3     1  ZINC000455156110   -0.3100
      3 C3         -9.4998   -0.8675   58.4472 C.ar    1  ZINC000455156110    0.0900
      4 C4         -8.8102    0.3295   58.5593 C.ar    1  ZINC000455156110   -0.1600
      5 C5         -8.3456    0.9688   57.4257 C.ar    1  ZINC000455156110   -0.0800
      6 C6         -7.5964    2.2706   57.5488 C.3     1  ZINC000455156110   -0.1100
      7 C7         -8.5685    0.4123   56.1739 C.ar    1  ZINC000455156110    0.1500
      8 N8         -8.0964    1.0606   55.0246 N.am    1  ZINC000455156110   -0.6700
      9 C9         -8.9645    1.4793   54.0826 C.2     1  ZINC000455156110    0.7200
     10 O10       -10.1573    1.2948   54.2298 O.2     1  ZINC000455156110   -0.5500
     11 N11        -8.5104    2.1028   52.9773 N.am    1  ZINC000455156110   -0.5600
     12 C12        -7.0994    2.3760   52.6854 C.3     1  ZINC000455156110    0.1000
     13 C13        -7.1056    3.0924   51.3296 C.3     1  ZINC000455156110   -0.0200
     14 C14        -6.5057    4.4899   51.4664 C.3     1  ZINC000455156110   -0.1400
     15 C15        -5.0202    4.3672   51.8200 C.3     1  ZINC000455156110    0.0600
     16 O16        -4.3578    3.5896   50.8206 O.3     1  ZINC000455156110   -0.3800
     17 C17        -4.8445    2.2512   50.7016 C.3     1  ZINC000455156110    0.0600
     18 C18        -6.3223    2.2821   50.2993 C.3     1  ZINC000455156110   -0.1400
     19 C19        -8.5597    3.1775   50.9392 C.ar    1  ZINC000455156110   -0.1300
     20 C20        -9.1743    3.7163   49.8253 C.ar    1  ZINC000455156110   -0.0700
     21 C21       -10.5502    3.6676   49.6983 C.ar    1  ZINC000455156110   -0.1400
     22 C22       -11.3122    3.0776   50.6897 C.ar    1  ZINC000455156110   -0.0900
     23 C23       -10.7039    2.5392   51.8038 C.ar    1  ZINC000455156110   -0.1300
     24 C24        -9.3153    2.5791   51.9369 C.ar    1  ZINC000455156110    0.1600
     25 C25        -9.2588   -0.7872   56.0605 C.ar    1  ZINC000455156110   -0.1200
     26 C26        -9.7194   -1.4285   57.1952 C.ar    1  ZINC000455156110    0.0900
     27 F27       -10.3908   -2.5958   57.0861 F       1  ZINC000455156110   -0.1300
     28 H28       -10.9572   -3.1271   60.3430 H       1  ZINC000455156110    0.1000
     29 H29       -11.5264   -2.5665   58.7524 H       1  ZINC000455156110    0.0600
     30 H30        -9.9858   -3.4478   58.8864 H       1  ZINC000455156110    0.0600
     31 H31        -8.6361    0.7630   59.5330 H       1  ZINC000455156110    0.1400
     32 H32        -6.5302    2.0681   57.6501 H       1  ZINC000455156110    0.0800
     33 H33        -7.7685    2.8745   56.6578 H       1  ZINC000455156110    0.0600
     34 H34        -7.9487    2.8109   58.4275 H       1  ZINC000455156110    0.0800
     35 H35        -7.1449    1.2079   54.9072 H       1  ZINC000455156110    0.4100
     36 H36        -6.6720    3.0214   53.4528 H       1  ZINC000455156110    0.0800
     37 H37        -6.5391    1.4435   52.6185 H       1  ZINC000455156110    0.0900
     38 H38        -6.6126    5.0261   50.5235 H       1  ZINC000455156110    0.0800
     39 H39        -7.0245    5.0332   52.2562 H       1  ZINC000455156110    0.0800
     40 H40        -4.5735    5.3605   51.8632 H       1  ZINC000455156110    0.1000
     41 H41        -4.9163    3.8788   52.7889 H       1  ZINC000455156110    0.0500
     42 H42        -4.2713    1.7221   49.9404 H       1  ZINC000455156110    0.1000
     43 H43        -4.7388    1.7394   51.6582 H       1  ZINC000455156110    0.0500
     44 H44        -6.7115    1.2646   50.2638 H       1  ZINC000455156110    0.0800
     45 H45        -6.4230    2.7460   49.3181 H       1  ZINC000455156110    0.0800
     46 H46        -8.5783    4.1774   49.0517 H       1  ZINC000455156110    0.1300
     47 H47       -11.0286    4.0896   48.8270 H       1  ZINC000455156110    0.1300
     48 H48       -12.3870    3.0388   50.5914 H       1  ZINC000455156110    0.1300
     49 H49       -11.3047    2.0802   52.5750 H       1  ZINC000455156110    0.1400
     50 H50        -9.4325   -1.2208   55.0868 H       1  ZINC000455156110    0.1700
@<TRIPOS>BOND
     1     1     2    1
     2     1    28    1
     3     1    29    1
     4     1    30    1
     5     2     3    1
     6     3    26   ar
     7     3     4   ar
     8     4     5   ar
     9     4    31    1
    10     5     6    1
    11     5     7   ar
    12     6    32    1
    13     6    33    1
    14     6    34    1
    15     7     8    1
    16     7    25   ar
    17     8     9   am
    18     8    35    1
    19     9    10    2
    20     9    11   am
    21    11    24    1
    22    11    12    1
    23    12    13    1
    24    12    36    1
    25    12    37    1
    26    13    18    1
    27    13    14    1
    28    13    19    1
    29    14    15    1
    30    14    38    1
    31    14    39    1
    32    15    16    1
    33    15    40    1
    34    15    41    1
    35    16    17    1
    36    17    18    1
    37    17    42    1
    38    17    43    1
    39    18    44    1
    40    18    45    1
    41    19    24   ar
    42    19    20   ar
    43    20    21   ar
    44    20    46    1
    45    21    22   ar
    46    21    47    1
    47    22    23   ar
    48    22    48    1
    49    23    24   ar
    50    23    49    1
    51    25    26   ar
    52    25    50    1
    53    26    27    1
@<TRIPOS>SUBSTRUCTURE
     1 ZINC000455156110        1 TEMP              0 ****  ****    0 ROOT


##########                                Name:      oleObject5.pdb
##########                DOCK_Rotatable_Bonds:                   5
##########                         Heavy_Atoms:                  24
##########                    Molecular_Weight:             323.438
##########                DOCK_Rotatable_Bonds:                   5
##########                       Formal_Charge:         0.000200074
##########                     HBond_Acceptors:                   4
##########                        HBond_Donors:                   2
##########                         Heavy_Atoms:                  24
##########                          Grid_Score:          -27.962976
##########                     Grid_vdw_energy:          -26.880941
##########                      Grid_es_energy:           -1.082036
##########           Internal_energy_repulsive:           13.296415

@<TRIPOS>MOLECULE
oleObject5.pdb
 49 51 1 0 0
SMALL
NO_CHARGES


@<TRIPOS>ATOM
      1 C           1.7918    1.2882   50.5337 C.3     1  UNL        -0.0394
      2 C           1.4759    2.7805   50.5074 C.ar    1  UNL        -0.0456
      3 C           2.5147    3.6794   50.8197 C.ar    1  UNL        -0.0590
      4 C           2.2890    5.0630   50.8359 C.ar    1  UNL        -0.0620
      5 C           1.0143    5.5632   50.5442 C.ar    1  UNL        -0.0619
      6 C          -0.0286    4.6787   50.2343 C.ar    1  UNL        -0.0565
      7 C           0.1840    3.2839   50.2030 C.ar    1  UNL        -0.0188
      8 C          -1.0087    2.3717   49.8855 C.3     1  UNL         0.0906
      9 N          -2.2510    3.0075   50.3585 N.am    1  UNL        -0.3025
     10 C          -3.4964    2.4202   50.2267 C.2     1  UNL         0.2156
     11 O          -3.6316    1.2657   49.8597 O.2     1  UNL        -0.2774
     12 C          -4.6505    3.2686   50.7936 C.3     1  UNL         0.0382
     13 C          -4.7664    3.1153   52.3339 C.3     1  UNL        -0.0292
     14 C          -5.3695    1.7497   52.7292 C.3     1  UNL        -0.0041
     15 N          -6.6829    1.5554   52.0912 N.4     1  UNL        -0.3167
     16 C          -6.6341    1.6219   50.6198 C.3     1  UNL        -0.0041
     17 C          -6.0180    2.9553   50.1266 C.3     1  UNL        -0.0292
     18 C          -1.0596    1.9947   48.3949 C.ar    1  UNL         0.0681
     19 N          -1.0505    3.0208   47.5095 N.ar    1  UNL        -0.2587
     20 C          -1.0842    2.7560   46.1900 C.ar    1  UNL         0.0272
     21 C          -1.1249    1.4496   45.6815 C.ar    1  UNL        -0.0435
     22 C          -1.1294    0.3775   46.5851 C.ar    1  UNL        -0.0559
     23 C          -1.0953    0.6436   47.9672 C.ar    1  UNL        -0.0272
     24 C          -1.0911   -0.5214   48.9489 C.3     1  UNL        -0.0379
     25 H           2.8675    1.1057   50.6487 H       1  UNL         0.0280
     26 H           1.4834    0.7887   49.6087 H       1  UNL         0.0280
     27 H           1.2919    0.7943   51.3740 H       1  UNL         0.0280
     28 H           3.5062    3.3041   51.0578 H       1  UNL         0.0626
     29 H           3.0990    5.7443   51.0800 H       1  UNL         0.0623
     30 H           0.8322    6.6339   50.5622 H       1  UNL         0.0623
     31 H          -1.0132    5.0850   50.0236 H       1  UNL         0.0627
     32 H          -0.9080    1.4326   50.4376 H       1  UNL         0.0624
     33 H          -2.1419    3.6734   51.1123 H       1  UNL         0.1504
     34 H          -4.4013    4.3147   50.5730 H       1  UNL         0.0402
     35 H          -5.4119    3.9123   52.7251 H       1  UNL         0.0288
     36 H          -3.7889    3.2440   52.8152 H       1  UNL         0.0288
     37 H          -5.4766    1.7003   53.8202 H       1  UNL         0.0428
     38 H          -4.6856    0.9472   52.4235 H       1  UNL         0.0428
     39 H          -7.3230    2.2715   52.4328 H       1  UNL         0.1222
     40 H          -7.6475    1.5179   50.2121 H       1  UNL         0.0428
     41 H          -6.0410    0.7811   50.2392 H       1  UNL         0.0428
     42 H          -6.7178    3.7680   50.3602 H       1  UNL         0.0288
     43 H          -5.9127    2.9384   49.0341 H       1  UNL         0.0288
     44 H          -1.0781    3.6164   45.5221 H       1  UNL         0.0840
     45 H          -1.1508    1.2728   44.6104 H       1  UNL         0.0639
     46 H          -1.1575   -0.6438   46.2158 H       1  UNL         0.0627
     47 H          -1.1209   -1.4875   48.4298 H       1  UNL         0.0280
     48 H          -1.9631   -0.4823   49.6131 H       1  UNL         0.0280
     49 H          -0.1853   -0.5128   49.5673 H       1  UNL         0.0280
@<TRIPOS>BOND
     1     1     2    1
     2     1    25    1
     3     1    26    1
     4     1    27    1
     5     2     3   ar
     6     2     7   ar
     7     3     4   ar
     8     3    28    1
     9     4     5   ar
    10     4    29    1
    11     5     6   ar
    12     5    30    1
    13     6     7   ar
    14     6    31    1
    15     7     8    1
    16     8     9    1
    17     8    18    1
    18     8    32    1
    19     9    10   am
    20     9    33    1
    21    10    11    2
    22    10    12    1
    23    12    13    1
    24    12    17    1
    25    12    34    1
    26    13    14    1
    27    13    35    1
    28    13    36    1
    29    14    15    1
    30    14    37    1
    31    14    38    1
    32    15    16    1
    33    15    39    1
    34    16    17    1
    35    16    40    1
    36    16    41    1
    37    17    42    1
    38    17    43    1
    39    18    19   ar
    40    18    23   ar
    41    19    20   ar
    42    20    21   ar
    43    20    44    1
    44    21    22   ar
    45    21    45    1
    46    22    23   ar
    47    22    46    1
    48    23    24    1
    49    24    47    1
    50    24    48    1
    51    24    49    1
@<TRIPOS>SUBSTRUCTURE
     1 UNL         1 TEMP              0 ****  ****    0 ROOT


##########                                Name:    ZINC000279974681
##########                DOCK_Rotatable_Bonds:                   4
##########                         Heavy_Atoms:                  23
##########                    Molecular_Weight:              338.79
##########                DOCK_Rotatable_Bonds:                   4
##########                       Formal_Charge:           0.0100008
##########                     HBond_Acceptors:                   7
##########                        HBond_Donors:                   1
##########                         Heavy_Atoms:                  23
##########                          Grid_Score:          -27.956301
##########                     Grid_vdw_energy:          -27.598623
##########                      Grid_es_energy:           -0.357677
##########           Internal_energy_repulsive:            6.721640

@<TRIPOS>MOLECULE
ZINC000279974681
 42 45 1 0 0
SMALL
USER_CHARGES


@<TRIPOS>ATOM
      1 C1          1.6640    4.4570   52.9849 C.3     1  ZINC000279974681   -0.1400
      2 C2          0.2760    4.0528   52.4839 C.3     1  ZINC000279974681    0.0700
      3 H3          0.0810    3.0139   52.7505 H       1  ZINC000279974681    0.0600
      4 C4          0.2156    4.2105   50.9603 C.3     1  ZINC000279974681    0.1000
      5 N5         -1.1744    3.9982   50.5266 N.am    1  ZINC000279974681   -0.6300
      6 C6         -1.4664    3.1410   49.5283 C.2     1  ZINC000279974681    0.7100
      7 O7         -2.6214    2.9793   49.1841 O.2     1  ZINC000279974681   -0.5600
      8 N8         -0.4782    2.4632   48.9114 N.am    1  ZINC000279974681   -0.6700
      9 C9         -0.7821    1.5715   47.8730 C.ar    1  ZINC000279974681    0.2000
     10 C10        -1.1556    2.0573   46.6281 C.ar    1  ZINC000279974681   -0.1200
     11 C11        -1.4552    1.1761   45.6024 C.ar    1  ZINC000279974681    0.0700
     12 C12        -1.3811   -0.1969   45.8225 C.ar    1  ZINC000279974681    0.0200
     13 C13        -1.0082   -0.6788   47.0670 C.ar    1  ZINC000279974681   -0.0700
     14 C14        -0.7036    0.2014   48.0887 C.ar    1  ZINC000279974681   -0.0700
     15 Cl15       -0.2370   -0.4061   49.6466 Cl      1  ZINC000279974681   -0.0500
     16 O16        -1.7207   -0.8427   44.6676 O.3     1  ZINC000279974681   -0.3000
     17 C17        -2.3971    0.1406   43.8621 C.3     1  ZINC000279974681    0.2100
     18 O18        -1.8410    1.3909   44.3103 O.3     1  ZINC000279974681   -0.3000
     19 C19        -2.2363    4.7489   51.2151 C.3     1  ZINC000279974681    0.0800
     20 C20        -2.0563    4.5650   52.7263 C.3     1  ZINC000279974681    0.1100
     21 H21        -2.2607    3.5282   52.9937 H       1  ZINC000279974681    0.0700
     22 C22        -3.0246    5.4855   53.4720 C.3     1  ZINC000279974681   -0.1600
     23 C23        -4.1704    4.8287   54.2446 C.3     1  ZINC000279974681   -0.1700
     24 C24        -2.9954    5.4513   55.0014 C.3     1  ZINC000279974681   -0.1600
     25 O25        -0.7120    4.8934   53.0848 O.3     1  ZINC000279974681   -0.3600
     26 H26         1.7057    4.3462   54.0685 H       1  ZINC000279974681    0.0700
     27 H27         2.4169    3.8168   52.5251 H       1  ZINC000279974681    0.0800
     28 H28         1.8583    5.4958   52.7181 H       1  ZINC000279974681    0.0700
     29 H29         0.5377    5.2140   50.6821 H       1  ZINC000279974681    0.0800
     30 H30         0.8642    3.4722   50.4888 H       1  ZINC000279974681    0.1100
     31 H31         0.4431    2.5923   49.1860 H       1  ZINC000279974681    0.4100
     32 H32        -1.2130    3.1226   46.4591 H       1  ZINC000279974681    0.1800
     33 H33        -0.9510   -1.7437   47.2378 H       1  ZINC000279974681    0.1500
     34 H34        -2.1826   -0.0170   42.8052 H       1  ZINC000279974681    0.1400
     35 H35        -3.4713    0.1119   44.0446 H       1  ZINC000279974681    0.0900
     36 H36        -2.1610    5.8066   50.9626 H       1  ZINC000279974681    0.0900
     37 H37        -3.2113    4.3672   50.9123 H       1  ZINC000279974681    0.0900
     38 H38        -3.2242    6.4444   52.9938 H       1  ZINC000279974681    0.1100
     39 H39        -5.1242    5.3554   54.2745 H       1  ZINC000279974681    0.1000
     40 H40        -4.2344    3.7408   54.2216 H       1  ZINC000279974681    0.1000
     41 H41        -2.2865    4.7731   55.4763 H       1  ZINC000279974681    0.1000
     42 H42        -3.1762    6.3877   55.5292 H       1  ZINC000279974681    0.1000
@<TRIPOS>BOND
     1     1     2    1
     2     1    26    1
     3     1    27    1
     4     1    28    1
     5     2     3    1
     6     2    25    1
     7     2     4    1
     8     4     5    1
     9     4    29    1
    10     4    30    1
    11     5     6   am
    12     5    19    1
    13     6     7    2
    14     6     8   am
    15     8     9    1
    16     8    31    1
    17     9    14   ar
    18     9    10   ar
    19    10    11   ar
    20    10    32    1
    21    11    18    1
    22    11    12   ar
    23    12    13   ar
    24    12    16    1
    25    13    14   ar
    26    13    33    1
    27    14    15    1
    28    16    17    1
    29    17    18    1
    30    17    34    1
    31    17    35    1
    32    19    20    1
    33    19    36    1
    34    19    37    1
    35    20    21    1
    36    20    22    1
    37    20    25    1
    38    22    24    1
    39    22    23    1
    40    22    38    1
    41    23    24    1
    42    23    39    1
    43    23    40    1
    44    24    41    1
    45    24    42    1
@<TRIPOS>SUBSTRUCTURE
     1 ZINC000279974681        1 TEMP              0 ****  ****    0 ROOT


##########                                Name:    ZINC000274267583
##########                DOCK_Rotatable_Bonds:                   5
##########                         Heavy_Atoms:                  24
##########                    Molecular_Weight:             349.407
##########                DOCK_Rotatable_Bonds:                   5
##########                       Formal_Charge:           0.0300001
##########                     HBond_Acceptors:                   7
##########                        HBond_Donors:                   1
##########                         Heavy_Atoms:                  24
##########                          Grid_Score:          -27.896654
##########                     Grid_vdw_energy:          -27.794975
##########                      Grid_es_energy:           -0.101679
##########           Internal_energy_repulsive:           15.460813

@<TRIPOS>MOLECULE
ZINC000274267583
 43 45 1 0 0
SMALL
USER_CHARGES


@<TRIPOS>ATOM
      1 C1         -4.6284    3.0252   50.1844 C.3     1  ZINC000274267583    0.0200
      2 O2         -5.8070    3.6458   50.7018 O.3     1  ZINC000274267583   -0.3100
      3 C3         -6.7428    2.8292   51.2537 C.ar    1  ZINC000274267583    0.1900
      4 C4         -7.8961    3.3675   51.8056 C.ar    1  ZINC000274267583   -0.2300
      5 C5         -8.8460    2.5352   52.3656 C.ar    1  ZINC000274267583    0.0300
      6 C6         -8.6477    1.1669   52.3767 C.ar    1  ZINC000274267583   -0.7200
      7 S7         -9.8608    0.1082   53.0922 S.o2    1  ZINC000274267583    2.7000
      8 O8        -11.0887    0.4086   52.4432 O.2     1  ZINC000274267583   -0.9500
      9 O9         -9.2928   -1.1942   53.1162 O.2     1  ZINC000274267583   -0.9500
     10 N10       -10.0424    0.5684   54.6725 N.am    1  ZINC000274267583   -1.1100
     11 C11        -8.8975    0.5212   55.5854 C.3     1  ZINC000274267583    0.2100
     12 H12        -8.0179    0.1699   55.0461 H       1  ZINC000274267583    0.1000
     13 C13        -8.6296    1.9228   56.1391 C.3     1  ZINC000274267583   -0.1800
     14 C14        -7.6344    1.8003   57.3001 C.3     1  ZINC000274267583    0.0600
     15 O15        -8.2566    1.0587   58.3502 O.3     1  ZINC000274267583   -0.3100
     16 C16        -8.8626   -0.1144   58.0264 C.ar    1  ZINC000274267583    0.1100
     17 C17        -9.1455   -1.0171   59.0459 C.ar    1  ZINC000274267583   -0.1100
     18 C18        -9.7642   -2.2172   58.7610 C.ar    1  ZINC000274267583   -0.1600
     19 C19       -10.1061   -2.5252   57.4529 C.ar    1  ZINC000274267583    0.0900
     20 O20       -10.7183   -3.7057   57.1686 O.3     1  ZINC000274267583   -0.3200
     21 C21       -10.9731   -4.5851   58.2659 C.3     1  ZINC000274267583    0.0300
     22 C22        -9.8228   -1.6276   56.4359 C.ar    1  ZINC000274267583   -0.1000
     23 C23        -9.2001   -0.4235   56.7210 C.ar    1  ZINC000274267583   -0.1400
     24 C24        -7.4992    0.6280   51.8268 C.ar    1  ZINC000274267583    0.0200
     25 C25        -6.5487    1.4556   51.2609 C.ar    1  ZINC000274267583   -0.1700
     26 H26        -4.1164    2.4928   50.9860 H       1  ZINC000274267583    0.0600
     27 H27        -4.9033    2.3216   49.3986 H       1  ZINC000274267583    0.0600
     28 H28        -3.9665    3.7878   49.7740 H       1  ZINC000274267583    0.1100
     29 H29        -8.0511    4.4362   51.7979 H       1  ZINC000274267583    0.1400
     30 H30        -9.7440    2.9538   52.7954 H       1  ZINC000274267583    0.1400
     31 H31       -10.9068    0.8692   54.9939 H       1  ZINC000274267583    0.4200
     32 H32        -8.2055    2.5520   55.3566 H       1  ZINC000274267583    0.1000
     33 H33        -9.5611    2.3602   56.4983 H       1  ZINC000274267583    0.0900
     34 H34        -6.7391    1.2782   56.9626 H       1  ZINC000274267583    0.0700
     35 H35        -7.3669    2.7936   57.6606 H       1  ZINC000274267583    0.1200
     36 H36        -8.8794   -0.7779   60.0649 H       1  ZINC000274267583    0.1400
     37 H37        -9.9814   -2.9157   59.5556 H       1  ZINC000274267583    0.1400
     38 H38       -10.0306   -4.8518   58.7442 H       1  ZINC000274267583    0.0600
     39 H39       -11.6191   -4.0866   58.9886 H       1  ZINC000274267583    0.0600
     40 H40       -11.4639   -5.4877   57.9017 H       1  ZINC000274267583    0.1000
     41 H41       -10.0888   -1.8677   55.4171 H       1  ZINC000274267583    0.1300
     42 H42        -7.3467   -0.4412   51.8363 H       1  ZINC000274267583    0.1500
     43 H43        -5.6519    1.0341   50.8316 H       1  ZINC000274267583    0.1400
@<TRIPOS>BOND
     1     1     2    1
     2     1    26    1
     3     1    27    1
     4     1    28    1
     5     2     3    1
     6     3    25   ar
     7     3     4   ar
     8     4     5   ar
     9     4    29    1
    10     5     6   ar
    11     5    30    1
    12     6     7    1
    13     6    24   ar
    14     7     8    2
    15     7     9    2
    16     7    10   am
    17    10    11    1
    18    10    31    1
    19    11    12    1
    20    11    23    1
    21    11    13    1
    22    13    14    1
    23    13    32    1
    24    13    33    1
    25    14    15    1
    26    14    34    1
    27    14    35    1
    28    15    16    1
    29    16    23   ar
    30    16    17   ar
    31    17    18   ar
    32    17    36    1
    33    18    19   ar
    34    18    37    1
    35    19    20    1
    36    19    22   ar
    37    20    21    1
    38    21    38    1
    39    21    39    1
    40    21    40    1
    41    22    23   ar
    42    22    41    1
    43    24    25   ar
    44    24    42    1
    45    25    43    1
@<TRIPOS>SUBSTRUCTURE
     1 ZINC000274267583        1 TEMP              0 ****  ****    0 ROOT


##########                                Name:    ZINC000277311370
##########                DOCK_Rotatable_Bonds:                   5
##########                         Heavy_Atoms:                  17
##########                    Molecular_Weight:             361.036
##########                DOCK_Rotatable_Bonds:                   5
##########                       Formal_Charge:        -7.45058e-08
##########                     HBond_Acceptors:                   4
##########                        HBond_Donors:                   1
##########                         Heavy_Atoms:                  17
##########                          Grid_Score:          -27.816675
##########                     Grid_vdw_energy:          -26.941559
##########                      Grid_es_energy:           -0.875117
##########           Internal_energy_repulsive:            8.182879

@<TRIPOS>MOLECULE
ZINC000277311370
 28 28 1 0 0
SMALL
USER_CHARGES


@<TRIPOS>ATOM
      1 C1         -6.7205    3.0539   53.9469 C.3     1  ZINC000277311370   -0.1500
      2 C2         -7.1813    1.6295   53.6310 C.3     1  ZINC000277311370   -0.1000
      3 C3         -8.6831    1.5085   53.8971 C.3     1  ZINC000277311370   -0.1600
      4 C4         -6.8969    1.3158   52.1608 C.3     1  ZINC000277311370    0.2500
      5 H5         -7.5411    1.9261   51.5278 H       1  ZINC000277311370    0.1400
      6 C6         -7.1626   -0.1088   51.9026 C.1     1  ZINC000277311370    0.1900
      7 N7         -7.3676   -1.2082   51.7034 N.1     1  ZINC000277311370   -0.4100
      8 N8         -5.4941    1.6132   51.8606 N.am    1  ZINC000277311370   -0.7000
      9 C9         -5.0945    1.7571   50.5815 C.2     1  ZINC000277311370    0.5700
     10 O10        -5.8982    1.6417   49.6772 O.2     1  ZINC000277311370   -0.4900
     11 C11        -3.6761    2.0560   50.2779 C.ar    1  ZINC000277311370    0.1100
     12 N12        -2.8985    1.1088   49.7673 N.ar    1  ZINC000277311370   -0.4300
     13 C13        -1.6336    1.3334   49.4829 C.ar    1  ZINC000277311370    0.1300
     14 Br14       -0.5797   -0.0590   48.7572 Br      1  ZINC000277311370    0.0200
     15 C15        -1.0625    2.5773   49.7079 C.ar    1  ZINC000277311370   -0.1100
     16 C16        -1.8382    3.5945   50.2396 C.ar    1  ZINC000277311370   -0.0400
     17 C17        -3.1701    3.3310   50.5252 C.ar    1  ZINC000277311370   -0.0900
     18 Br18       -4.2797    4.6786   51.2524 Br      1  ZINC000277311370    0.0300
     19 H19        -6.9231    3.2774   54.9943 H       1  ZINC000277311370    0.0700
     20 H20        -5.6506    3.1400   53.7573 H       1  ZINC000277311370    0.0700
     21 H21        -7.2595    3.7589   53.3141 H       1  ZINC000277311370    0.0600
     22 H22        -6.6423    0.9244   54.2639 H       1  ZINC000277311370    0.1000
     23 H23        -9.2221    2.2135   53.2642 H       1  ZINC000277311370    0.0600
     24 H24        -9.0114    0.4938   53.6719 H       1  ZINC000277311370    0.0600
     25 H25        -8.8857    1.7321   54.9445 H       1  ZINC000277311370    0.0700
     26 H26        -4.8529    1.7066   52.5824 H       1  ZINC000277311370    0.4200
     27 H27        -0.0234    2.7511   49.4710 H       1  ZINC000277311370    0.1600
     28 H28        -1.4167    4.5717   50.4238 H       1  ZINC000277311370    0.1700
@<TRIPOS>BOND
     1     1     2    1
     2     1    19    1
     3     1    20    1
     4     1    21    1
     5     2     3    1
     6     2     4    1
     7     2    22    1
     8     3    23    1
     9     3    24    1
    10     3    25    1
    11     4     5    1
    12     4     6    1
    13     4     8    1
    14     6     7    3
    15     8     9   am
    16     8    26    1
    17     9    10    2
    18     9    11    1
    19    11    17   ar
    20    11    12   ar
    21    12    13   ar
    22    13    14    1
    23    13    15   ar
    24    15    16   ar
    25    15    27    1
    26    16    17   ar
    27    16    28    1
    28    17    18    1
@<TRIPOS>SUBSTRUCTURE
     1 ZINC000277311370        1 TEMP              0 ****  ****    0 ROOT


##########                                Name:    ZINC000883773972
##########                DOCK_Rotatable_Bonds:                   4
##########                         Heavy_Atoms:                  23
##########                    Molecular_Weight:             343.447
##########                DOCK_Rotatable_Bonds:                   4
##########                       Formal_Charge:                0.01
##########                     HBond_Acceptors:                   8
##########                        HBond_Donors:                   1
##########                         Heavy_Atoms:                  23
##########                          Grid_Score:          -27.809828
##########                     Grid_vdw_energy:          -27.973860
##########                      Grid_es_energy:            0.164032
##########           Internal_energy_repulsive:            5.105498

@<TRIPOS>MOLECULE
ZINC000883773972
 48 50 1 0 0
SMALL
USER_CHARGES


@<TRIPOS>ATOM
      1 C1         -9.6341    1.8049   53.4247 C.3     1  ZINC000883773972   -0.1700
      2 C2         -8.4687    2.6933   53.7765 C.2     1  ZINC000883773972    0.5300
      3 O3         -8.5242    3.4072   54.7554 O.2     1  ZINC000883773972   -0.5400
      4 N4         -7.3647    2.6943   53.0034 N.am    1  ZINC000883773972   -0.6200
      5 C5         -7.1417    1.8957   51.7869 C.3     1  ZINC000883773972    0.1100
      6 C6         -6.2289    2.7356   50.8781 C.3     1  ZINC000883773972   -0.1100
      7 H7         -6.7845    3.2029   50.0652 H       1  ZINC000883773972    0.1000
      8 C8         -5.0812    1.8554   50.3554 C.3     1  ZINC000883773972    0.1300
      9 N9         -3.8405    2.6158   50.5781 N.am    1  ZINC000883773972   -0.6400
     10 C10        -2.7239    2.5742   49.8243 C.2     1  ZINC000883773972    0.7300
     11 O11        -1.7642    3.2592   50.1211 O.2     1  ZINC000883773972   -0.5800
     12 N12        -2.6713    1.7734   48.7415 N.am    1  ZINC000883773972   -0.7400
     13 C13        -1.4584    1.7295   47.9212 C.3     1  ZINC000883773972    0.1800
     14 H14        -1.0228    2.7273   47.8659 H       1  ZINC000883773972    0.1100
     15 C15        -0.4529    0.7724   48.5546 C.3     1  ZINC000883773972   -0.1500
     16 C16         0.9065    0.8907   47.8714 C.3     1  ZINC000883773972   -0.1000
     17 C17         0.8319    0.3155   46.4552 C.3     1  ZINC000883773972   -0.5600
     18 H18         0.4804   -0.7154   46.4983 H       1  ZINC000883773972    0.1400
     19 C19         2.2195    0.3569   45.8120 C.3     1  ZINC000883773972   -0.1400
     20 S20        -0.3263    1.3120   45.4724 S.o2    1  ZINC000883773972    2.4200
     21 O21         0.1478    2.6510   45.4308 O.2     1  ZINC000883773972   -0.9200
     22 O22        -0.5924    0.6304   44.2543 O.2     1  ZINC000883773972   -0.9300
     23 C23        -1.8153    1.2523   46.5117 C.3     1  ZINC000883773972   -0.6300
     24 C24        -4.0574    3.4305   51.7850 C.3     1  ZINC000883773972    0.1100
     25 C25        -5.5762    3.7847   51.8116 C.3     1  ZINC000883773972   -0.1100
     26 H26        -5.7591    4.8111   51.4937 H       1  ZINC000883773972    0.1000
     27 C27        -6.1489    3.4990   53.2067 C.3     1  ZINC000883773972    0.1100
     28 H28       -10.4282    1.9395   54.1592 H       1  ZINC000883773972    0.0900
     29 H29       -10.0063    2.0688   52.4348 H       1  ZINC000883773972    0.0900
     30 H30        -9.3108    0.7639   53.4258 H       1  ZINC000883773972    0.0900
     31 H31        -6.6534    0.9550   52.0413 H       1  ZINC000883773972    0.0800
     32 H32        -8.0910    1.7019   51.2874 H       1  ZINC000883773972    0.0900
     33 H33        -5.0487    0.9162   50.9077 H       1  ZINC000883773972    0.0700
     34 H34        -5.2143    1.6599   49.2914 H       1  ZINC000883773972    0.0900
     35 H35        -3.4365    1.2260   48.5054 H       1  ZINC000883773972    0.4000
     36 H36        -0.3453    1.0126   49.6123 H       1  ZINC000883773972    0.0900
     37 H37        -0.8176   -0.2498   48.4543 H       1  ZINC000883773972    0.0800
     38 H38         1.1958    1.9403   47.8208 H       1  ZINC000883773972    0.0900
     39 H39         1.6499    0.3393   48.4471 H       1  ZINC000883773972    0.0900
     40 H40         2.9139   -0.2355   46.4079 H       1  ZINC000883773972    0.0800
     41 H41         2.1649   -0.0530   44.8035 H       1  ZINC000883773972    0.0700
     42 H42         2.5682    1.3886   45.7665 H       1  ZINC000883773972    0.0800
     43 H43        -2.1895    0.2294   46.5545 H       1  ZINC000883773972    0.1400
     44 H44        -2.5804    1.9046   46.0907 H       1  ZINC000883773972    0.1400
     45 H45        -3.7836    2.8626   52.6740 H       1  ZINC000883773972    0.0800
     46 H46        -3.4684    4.3460   51.7292 H       1  ZINC000883773972    0.0800
     47 H47        -6.3780    4.4351   53.7160 H       1  ZINC000883773972    0.0900
     48 H48        -5.4358    2.9188   53.7923 H       1  ZINC000883773972    0.0700
@<TRIPOS>BOND
     1     1     2    1
     2     1    28    1
     3     1    29    1
     4     1    30    1
     5     2     3    2
     6     2     4   am
     7     4    27    1
     8     4     5    1
     9     5     6    1
    10     5    31    1
    11     5    32    1
    12     6     7    1
    13     6    25    1
    14     6     8    1
    15     8     9    1
    16     8    33    1
    17     8    34    1
    18     9    10   am
    19     9    24    1
    20    10    11    2
    21    10    12   am
    22    12    13    1
    23    12    35    1
    24    13    14    1
    25    13    23    1
    26    13    15    1
    27    15    16    1
    28    15    36    1
    29    15    37    1
    30    16    17    1
    31    16    38    1
    32    16    39    1
    33    17    18    1
    34    17    19    1
    35    17    20    1
    36    19    40    1
    37    19    41    1
    38    19    42    1
    39    20    21    2
    40    20    22    2
    41    20    23    1
    42    23    43    1
    43    23    44    1
    44    24    25    1
    45    24    45    1
    46    24    46    1
    47    25    26    1
    48    25    27    1
    49    27    47    1
    50    27    48    1
@<TRIPOS>SUBSTRUCTURE
     1 ZINC000883773972        1 TEMP              0 ****  ****    0 ROOT


##########                                Name:    ZINC001018118384
##########                DOCK_Rotatable_Bonds:                   5
##########                         Heavy_Atoms:                  25
##########                    Molecular_Weight:             347.374
##########                DOCK_Rotatable_Bonds:                   5
##########                       Formal_Charge:           0.0299997
##########                     HBond_Acceptors:                   9
##########                        HBond_Donors:                   2
##########                         Heavy_Atoms:                  25
##########                          Grid_Score:          -27.778481
##########                     Grid_vdw_energy:          -25.159277
##########                      Grid_es_energy:           -2.619203
##########           Internal_energy_repulsive:           97.192261

@<TRIPOS>MOLECULE
ZINC001018118384
 46 48 1 0 0
SMALL
USER_CHARGES


@<TRIPOS>ATOM
      1 C1         -5.6420    2.8516   57.4260 C.3     1  ZINC001018118384   -0.0700
      2 C2         -6.6730    2.0836   58.2123 C.2     1  ZINC001018118384    0.2200
      3 N3         -7.2875    1.0101   57.8068 N.2     1  ZINC001018118384   -0.4600
      4 C4         -8.1417    0.5995   58.7789 C.2     1  ZINC001018118384   -0.0700
      5 C5         -9.0266   -0.5768   58.7207 C.2     1  ZINC001018118384    0.6100
      6 O6         -8.5891   -1.6806   58.9840 O.2     1  ZINC001018118384   -0.5400
      7 N7        -10.3211   -0.4298   58.3755 N.am    1  ZINC001018118384   -0.5900
      8 C8        -10.8628    0.8964   58.0488 C.3     1  ZINC001018118384    0.0700
      9 C9        -11.5366    0.8288   56.6747 C.3     1  ZINC001018118384    0.1300
     10 H10       -12.0259    1.7794   56.4623 H       1  ZINC001018118384    0.1100
     11 N11       -10.5273    0.5582   55.6479 N.am    1  ZINC001018118384   -0.7000
     12 C12       -10.1619    1.5307   54.7893 C.2     1  ZINC001018118384    0.6000
     13 O13       -10.6707    2.6313   54.8657 O.2     1  ZINC001018118384   -0.4900
     14 C14        -9.1396    1.2574   53.7517 C.2     1  ZINC001018118384    0.0300
     15 C15        -8.5173    0.0662   53.5234 C.2     1  ZINC001018118384   -0.2300
     16 C16        -7.6419    0.3379   52.4345 C.2     1  ZINC001018118384    0.4800
     17 O17        -6.8810   -0.4436   51.8884 O.2     1  ZINC001018118384   -0.5200
     18 N18        -7.8289    1.6383   52.1315 N.am    1  ZINC001018118384   -0.4500
     19 C19        -7.1270    2.3518   51.0617 C.3     1  ZINC001018118384    0.1100
     20 O20        -8.6583    2.1348   52.8580 O.3     1  ZINC001018118384    0.0000
     21 C21       -12.5781   -0.2926   56.6762 C.3     1  ZINC001018118384   -0.1300
     22 C22       -11.8873   -1.6321   56.9419 C.3     1  ZINC001018118384   -0.1300
     23 C23       -11.2160   -1.5933   58.3130 C.3     1  ZINC001018118384    0.1400
     24 H24       -11.9759   -1.5047   59.0896 H       1  ZINC001018118384    0.0700
     25 C25       -10.4117   -2.8772   58.5268 C.3     1  ZINC001018118384   -0.1400
     26 C26        -8.0309    1.4745   59.8198 C.2     1  ZINC001018118384    0.0400
     27 N27        -7.1066    2.3965   59.4612 N.pl3   1  ZINC001018118384   -0.5600
     28 H28        -4.6504    2.4532   57.6406 H       1  ZINC001018118384    0.0900
     29 H29        -5.8502    2.7532   56.3606 H       1  ZINC001018118384    0.1000
     30 H30        -5.6797    3.9038   57.7080 H       1  ZINC001018118384    0.0800
     31 H31       -11.5957    1.1873   58.8013 H       1  ZINC001018118384    0.0800
     32 H32       -10.0530    1.6256   58.0233 H       1  ZINC001018118384    0.1500
     33 H33       -10.1219   -0.3209   55.5860 H       1  ZINC001018118384    0.4100
     34 H34        -8.6561   -0.8676   54.0479 H       1  ZINC001018118384    0.1900
     35 H35        -7.6953    2.2679   50.1353 H       1  ZINC001018118384    0.0800
     36 H36        -7.0255    3.4030   51.3318 H       1  ZINC001018118384    0.0900
     37 H37        -6.1380    1.9155   50.9220 H       1  ZINC001018118384    0.1100
     38 H38       -13.3148   -0.1028   57.4567 H       1  ZINC001018118384    0.0900
     39 H39       -13.0763   -0.3267   55.7074 H       1  ZINC001018118384    0.0800
     40 H40       -12.6263   -2.4332   56.9196 H       1  ZINC001018118384    0.0800
     41 H41       -11.1333   -1.8109   56.1755 H       1  ZINC001018118384    0.0600
     42 H42        -9.6623   -2.9715   57.7409 H       1  ZINC001018118384    0.0700
     43 H43        -9.9173   -2.8388   59.4975 H       1  ZINC001018118384    0.0800
     44 H44       -11.0823   -3.7358   58.4944 H       1  ZINC001018118384    0.0400
     45 H45        -8.5732    1.4364   60.7529 H       1  ZINC001018118384    0.1900
     46 H46        -6.8119    3.1493   59.9972 H       1  ZINC001018118384    0.4300
@<TRIPOS>BOND
     1     1     2    1
     2     1    28    1
     3     1    29    1
     4     1    30    1
     5     2    27    1
     6     2     3    2
     7     3     4    1
     8     4     5    1
     9     4    26    2
    10     5     6    2
    11     5     7   am
    12     7    23    1
    13     7     8    1
    14     8     9    1
    15     8    31    1
    16     8    32    1
    17     9    10    1
    18     9    11    1
    19     9    21    1
    20    11    12   am
    21    11    33    1
    22    12    13    2
    23    12    14    1
    24    14    20    1
    25    14    15    2
    26    15    16    1
    27    15    34    1
    28    16    17    2
    29    16    18   am
    30    18    19    1
    31    18    20    1
    32    19    35    1
    33    19    36    1
    34    19    37    1
    35    21    22    1
    36    21    38    1
    37    21    39    1
    38    22    23    1
    39    22    40    1
    40    22    41    1
    41    23    24    1
    42    23    25    1
    43    25    42    1
    44    25    43    1
    45    25    44    1
    46    26    27    1
    47    26    45    1
    48    27    46    1
@<TRIPOS>SUBSTRUCTURE
     1 ZINC001018118384        1 TEMP              0 ****  ****    0 ROOT


##########                                Name:    ZINC000915315870
##########                DOCK_Rotatable_Bonds:                   4
##########                         Heavy_Atoms:                  24
##########                    Molecular_Weight:             357.381
##########                DOCK_Rotatable_Bonds:                   4
##########                       Formal_Charge:           0.0300002
##########                     HBond_Acceptors:                   9
##########                        HBond_Donors:                   1
##########                         Heavy_Atoms:                  24
##########                          Grid_Score:          -27.701725
##########                     Grid_vdw_energy:          -26.223518
##########                      Grid_es_energy:           -1.478206
##########           Internal_energy_repulsive:           36.573185

@<TRIPOS>MOLECULE
ZINC000915315870
 41 43 1 0 0
SMALL
USER_CHARGES


@<TRIPOS>ATOM
      1 C1        -10.5999    6.1338   50.4096 C.3     1  ZINC000915315870    0.0300
      2 O2        -10.4615    5.3077   51.5674 O.3     1  ZINC000915315870   -0.3200
      3 C3         -9.4934    4.3530   51.5325 C.ar    1  ZINC000915315870    0.0800
      4 C4         -8.6902    4.2175   50.4082 C.ar    1  ZINC000915315870    0.0900
      5 F5         -8.8688    5.0345   49.3471 F       1  ZINC000915315870   -0.1100
      6 C6         -7.7061    3.2453   50.3758 C.ar    1  ZINC000915315870   -0.0500
      7 C7         -7.5226    2.4089   51.4612 C.ar    1  ZINC000915315870   -0.6300
      8 S8         -6.2689    1.1717   51.4157 S.o2    1  ZINC000915315870    2.7000
      9 O9         -6.6569    0.1727   52.3488 O.2     1  ZINC000915315870   -0.9400
     10 O10        -6.0233    0.8996   50.0428 O.2     1  ZINC000915315870   -0.9400
     11 N11        -4.8836    1.8556   52.0120 N.am    1  ZINC000915315870   -1.1100
     12 C12        -4.3003    3.0252   51.3500 C.3     1  ZINC000915315870    0.2400
     13 H13        -5.0216    3.4503   50.6521 H       1  ZINC000915315870    0.0900
     14 C14        -3.9147    4.0753   52.3995 C.3     1  ZINC000915315870   -0.1400
     15 C15        -3.0901    5.1839   51.7418 C.3     1  ZINC000915315870   -0.1100
     16 C16        -1.6940    4.6536   51.3924 C.3     1  ZINC000915315870   -0.0400
     17 C17        -1.8577    3.3615   50.6294 C.2     1  ZINC000915315870    0.0900
     18 N18        -0.9788    2.7398   49.8985 N.2     1  ZINC000915315870   -0.2900
     19 N19        -1.5801    1.5813   49.3835 N.pl3   1  ZINC000915315870   -0.3800
     20 C20        -0.9406    0.5949   48.5094 C.3     1  ZINC000915315870    0.1000
     21 C21        -2.8532    1.5351   49.8364 C.2     1  ZINC000915315870    0.0800
     22 C22        -3.0513    2.6194   50.6072 C.2     1  ZINC000915315870   -0.2500
     23 C23        -8.3205    2.5415   52.5824 C.ar    1  ZINC000915315870   -0.0500
     24 C24        -9.3025    3.5155   52.6233 C.ar    1  ZINC000915315870    0.1000
     25 F25       -10.0819    3.6446   53.7193 F       1  ZINC000915315870   -0.1100
     26 H26       -11.4054    6.8507   50.5691 H       1  ZINC000915315870    0.1100
     27 H27        -9.6672    6.6690   50.2316 H       1  ZINC000915315870    0.0600
     28 H28       -10.8328    5.5120   49.5452 H       1  ZINC000915315870    0.0500
     29 H29        -7.0809    3.1395   49.5015 H       1  ZINC000915315870    0.1700
     30 H30        -4.4582    1.4819   52.7996 H       1  ZINC000915315870    0.4200
     31 H31        -4.8185    4.5039   52.8326 H       1  ZINC000915315870    0.0900
     32 H32        -3.3256    3.6029   53.1856 H       1  ZINC000915315870    0.0800
     33 H33        -3.5899    5.5161   50.8319 H       1  ZINC000915315870    0.0700
     34 H34        -2.9970    6.0236   52.4305 H       1  ZINC000915315870    0.0800
     35 H35        -1.1683    5.3815   50.7745 H       1  ZINC000915315870    0.0800
     36 H36        -1.1303    4.4715   52.3074 H       1  ZINC000915315870    0.0900
     37 H37        -0.4698   -0.1779   49.1169 H       1  ZINC000915315870    0.0800
     38 H38        -1.6918    0.1414   47.8627 H       1  ZINC000915315870    0.0900
     39 H39        -0.1844    1.0873   47.8980 H       1  ZINC000915315870    0.0900
     40 H40        -3.5800    0.7665   49.6185 H       1  ZINC000915315870    0.1700
     41 H41        -8.1746    1.8869   53.4289 H       1  ZINC000915315870    0.1700
@<TRIPOS>BOND
     1     1     2    1
     2     1    26    1
     3     1    27    1
     4     1    28    1
     5     2     3    1
     6     3    24   ar
     7     3     4   ar
     8     4     5    1
     9     4     6   ar
    10     6     7   ar
    11     6    29    1
    12     7     8    1
    13     7    23   ar
    14     8     9    2
    15     8    10    2
    16     8    11   am
    17    11    12    1
    18    11    30    1
    19    12    13    1
    20    12    22    1
    21    12    14    1
    22    14    15    1
    23    14    31    1
    24    14    32    1
    25    15    16    1
    26    15    33    1
    27    15    34    1
    28    16    17    1
    29    16    35    1
    30    16    36    1
    31    17    22    1
    32    17    18    2
    33    18    19    1
    34    19    20    1
    35    19    21    1
    36    20    37    1
    37    20    38    1
    38    20    39    1
    39    21    22    2
    40    21    40    1
    41    23    24   ar
    42    23    41    1
    43    24    25    1
@<TRIPOS>SUBSTRUCTURE
     1 ZINC000915315870        1 TEMP              0 ****  ****    0 ROOT


##########                                Name:    ZINC001064463188
##########                DOCK_Rotatable_Bonds:                   6
##########                         Heavy_Atoms:                  25
##########                    Molecular_Weight:             342.441
##########                DOCK_Rotatable_Bonds:                   6
##########                       Formal_Charge:          -0.0100004
##########                     HBond_Acceptors:                   6
##########                        HBond_Donors:                   0
##########                         Heavy_Atoms:                  25
##########                          Grid_Score:          -27.642839
##########                     Grid_vdw_energy:          -27.464073
##########                      Grid_es_energy:           -0.178767
##########           Internal_energy_repulsive:           13.417785

@<TRIPOS>MOLECULE
ZINC001064463188
 51 54 1 0 0
SMALL
USER_CHARGES


@<TRIPOS>ATOM
      1 C1         -0.4920    4.0151   51.9493 C.3     1  ZINC001064463188    0.0400
      2 O2         -0.5539    3.0551   50.8926 O.3     1  ZINC001064463188   -0.3000
      3 C3         -1.7527    2.8874   50.2832 C.ar    1  ZINC001064463188    0.3900
      4 C4         -1.8212    2.3865   48.9842 C.ar    1  ZINC001064463188   -0.2800
      5 C5         -3.0653    2.2318   48.4016 C.ar    1  ZINC001064463188    0.2000
      6 N6         -4.1479    2.5616   49.0892 N.ar    1  ZINC001064463188   -0.5800
      7 C7         -4.0518    3.0355   50.3228 C.ar    1  ZINC001064463188    0.5300
      8 N8         -5.2063    3.3685   51.0097 N.3     1  ZINC001064463188   -0.4500
      9 C9         -5.3308    4.8172   51.1529 C.3     1  ZINC001064463188    0.0700
     10 C10        -5.7732    5.1712   52.5777 C.3     1  ZINC001064463188   -0.1200
     11 C11        -7.1860    4.7016   52.8680 C.3     1  ZINC001064463188    0.1400
     12 H12        -7.4437    4.9181   53.9047 H       1  ZINC001064463188    0.0900
     13 C13        -8.2020    5.3573   51.9305 C.3     1  ZINC001064463188   -0.1300
     14 C14        -8.2715    4.4065   50.7225 C.3     1  ZINC001064463188   -0.1300
     15 C15        -7.6454    3.0942   51.2070 C.3     1  ZINC001064463188    0.1200
     16 H16        -8.3704    2.2855   51.1159 H       1  ZINC001064463188    0.0900
     17 C17        -6.4019    2.7607   50.3682 C.3     1  ZINC001064463188    0.0600
     18 N18        -7.2312    3.2291   52.6292 N.am    1  ZINC001064463188   -0.6000
     19 C19        -6.9582    2.2366   53.4993 C.2     1  ZINC001064463188    0.5800
     20 O20        -7.0431    1.0765   53.1445 O.2     1  ZINC001064463188   -0.5400
     21 C21        -6.5577    2.5567   54.8781 C.2     1  ZINC001064463188   -0.2200
     22 C22        -7.2967    2.1347   55.9001 C.2     1  ZINC001064463188    0.0000
     23 C23        -8.5443    1.3286   55.6457 C.3     1  ZINC001064463188   -0.1300
     24 C24        -6.8864    2.4625   57.3127 C.3     1  ZINC001064463188   -0.1200
     25 C25        -6.7496    3.9406   57.6836 C.3     1  ZINC001064463188   -0.1900
     26 C26        -7.9292    3.1243   58.2157 C.3     1  ZINC001064463188   -0.1600
     27 N27        -2.8785    3.1927   50.9171 N.ar    1  ZINC001064463188   -0.5900
     28 H28        -1.1854    3.7297   52.7406 H       1  ZINC001064463188    0.0600
     29 H29         0.5214    4.0501   52.3495 H       1  ZINC001064463188    0.1000
     30 H30        -0.7647    4.9976   51.5642 H       1  ZINC001064463188    0.0600
     31 H31        -0.9227    2.1255   48.4449 H       1  ZINC001064463188    0.1500
     32 H32        -3.1532    1.8467   47.3964 H       1  ZINC001064463188    0.1800
     33 H33        -4.3680    5.2847   50.9469 H       1  ZINC001064463188    0.0800
     34 H34        -6.0696    5.1883   50.4425 H       1  ZINC001064463188    0.0600
     35 H35        -5.0912    4.7026   53.2872 H       1  ZINC001064463188    0.0800
     36 H36        -5.7261    6.2527   52.7049 H       1  ZINC001064463188    0.0800
     37 H37        -9.1758    5.4304   52.4147 H       1  ZINC001064463188    0.0800
     38 H38        -7.8543    6.3428   51.6207 H       1  ZINC001064463188    0.0900
     39 H39        -9.3084    4.2446   50.4279 H       1  ZINC001064463188    0.0800
     40 H40        -7.6997    4.8129   49.8882 H       1  ZINC001064463188    0.0800
     41 H41        -6.5130    3.1793   49.3680 H       1  ZINC001064463188    0.0700
     42 H42        -6.2852    1.6790   50.3026 H       1  ZINC001064463188    0.0900
     43 H43        -5.6635    3.1343   55.0604 H       1  ZINC001064463188    0.1200
     44 H44        -8.2938    0.2680   55.6254 H       1  ZINC001064463188    0.0800
     45 H45        -9.2664    1.5162   56.4403 H       1  ZINC001064463188    0.0800
     46 H46        -8.9752    1.6187   54.6873 H       1  ZINC001064463188    0.0700
     47 H47        -6.1925    1.7608   57.7755 H       1  ZINC001064463188    0.1400
     48 H48        -5.9654    4.2115   58.3905 H       1  ZINC001064463188    0.1000
     49 H49        -6.9563    4.6758   56.9060 H       1  ZINC001064463188    0.1000
     50 H50        -8.9120    3.3227   57.7881 H       1  ZINC001064463188    0.0900
     51 H51        -7.9211    2.8584   59.2727 H       1  ZINC001064463188    0.1000
@<TRIPOS>BOND
     1     1     2    1
     2     1    28    1
     3     1    29    1
     4     1    30    1
     5     2     3    1
     6     3    27   ar
     7     3     4   ar
     8     4     5   ar
     9     4    31    1
    10     5     6   ar
    11     5    32    1
    12     6     7   ar
    13     7     8    1
    14     7    27   ar
    15     8    17    1
    16     8     9    1
    17     9    10    1
    18     9    33    1
    19     9    34    1
    20    10    11    1
    21    10    35    1
    22    10    36    1
    23    11    12    1
    24    11    18    1
    25    11    13    1
    26    13    14    1
    27    13    37    1
    28    13    38    1
    29    14    15    1
    30    14    39    1
    31    14    40    1
    32    15    16    1
    33    15    17    1
    34    15    18    1
    35    17    41    1
    36    17    42    1
    37    18    19   am
    38    19    20    2
    39    19    21    1
    40    21    22    2
    41    21    43    1
    42    22    23    1
    43    22    24    1
    44    23    44    1
    45    23    45    1
    46    23    46    1
    47    24    26    1
    48    24    25    1
    49    24    47    1
    50    25    26    1
    51    25    48    1
    52    25    49    1
    53    26    50    1
    54    26    51    1
@<TRIPOS>SUBSTRUCTURE
     1 ZINC001064463188        1 TEMP              0 ****  ****    0 ROOT


##########                                Name:    ZINC001199210165
##########                DOCK_Rotatable_Bonds:                   5
##########                         Heavy_Atoms:                  23
##########                    Molecular_Weight:             375.225
##########                DOCK_Rotatable_Bonds:                   5
##########                       Formal_Charge:         -0.00999999
##########                     HBond_Acceptors:                   6
##########                        HBond_Donors:                   2
##########                         Heavy_Atoms:                  23
##########                          Grid_Score:          -27.602709
##########                     Grid_vdw_energy:          -27.033772
##########                      Grid_es_energy:           -0.568938
##########           Internal_energy_repulsive:            6.148801

@<TRIPOS>MOLECULE
ZINC001199210165
 38 40 1 0 0
SMALL
USER_CHARGES


@<TRIPOS>ATOM
      1 C1         -2.9436    3.5242   50.7594 C.3     1  ZINC001199210165   -0.1700
      2 C2         -3.5716    2.5998   49.7144 C.3     1  ZINC001199210165    0.0800
      3 C3         -2.4680    1.8347   48.9812 C.3     1  ZINC001199210165   -0.1500
      4 O4         -4.4447    1.6722   50.3621 O.3     1  ZINC001199210165   -0.3000
      5 C5         -5.7035    2.0986   50.6351 C.ar    1  ZINC001199210165    0.3300
      6 C6         -6.4034    1.5376   51.6948 C.ar    1  ZINC001199210165   -0.1300
      7 C7         -7.6979    1.9870   51.9632 C.ar    1  ZINC001199210165   -0.0600
      8 C8         -8.4832    1.4189   53.0833 C.2     1  ZINC001199210165    0.5700
      9 O9         -9.6794    1.6224   53.1513 O.2     1  ZINC001199210165   -0.4900
     10 N10        -7.8712    0.6764   54.0270 N.am    1  ZINC001199210165   -0.6600
     11 C11        -8.6124    0.1402   55.0842 C.ar    1  ZINC001199210165    0.2000
     12 C12        -9.3199   -1.0489   54.9008 C.ar    1  ZINC001199210165   -0.1500
     13 C13       -10.0477   -1.5867   55.9204 C.ar    1  ZINC001199210165   -0.0200
     14 C14       -10.0882   -0.9439   57.1629 C.ar    1  ZINC001199210165   -0.1700
     15 C15       -10.7487   -1.2359   58.4320 C.2     1  ZINC001199210165    0.0900
     16 Br16      -11.8543   -2.7262   58.7958 Br      1  ZINC001199210165    0.0600
     17 N17       -10.4398   -0.2866   59.2691 N.2     1  ZINC001199210165   -0.2100
     18 N18        -9.6019    0.6466   58.6497 N.pl3   1  ZINC001199210165   -0.4900
     19 C19        -9.3766    0.2566   57.3550 C.ar    1  ZINC001199210165    0.1500
     20 C20        -8.6345    0.7891   56.3052 C.ar    1  ZINC001199210165   -0.1700
     21 C21        -8.2332    2.9889   51.1457 C.ar    1  ZINC001199210165   -0.1900
     22 C22        -7.4692    3.4926   50.1126 C.ar    1  ZINC001199210165    0.1400
     23 N23        -6.2475    3.0473   49.8922 N.ar    1  ZINC001199210165   -0.5200
     24 H24        -2.3759    2.9302   51.4757 H       1  ZINC001199210165    0.0600
     25 H25        -2.2777    4.2317   50.2654 H       1  ZINC001199210165    0.0700
     26 H26        -3.7298    4.0691   51.2818 H       1  ZINC001199210165    0.0600
     27 H27        -4.1393    3.1937   48.9982 H       1  ZINC001199210165    0.0900
     28 H28        -1.9002    1.2407   49.6974 H       1  ZINC001199210165    0.0700
     29 H29        -2.9154    1.1762   48.2367 H       1  ZINC001199210165    0.0600
     30 H30        -1.8020    2.5423   48.4872 H       1  ZINC001199210165    0.0800
     31 H31        -5.9538    0.7656   52.3017 H       1  ZINC001199210165    0.1600
     32 H32        -6.9164    0.5139   53.9726 H       1  ZINC001199210165    0.4100
     33 H33        -9.2907   -1.5471   53.9430 H       1  ZINC001199210165    0.1500
     34 H34       -10.5924   -2.5071   55.7696 H       1  ZINC001199210165    0.1400
     35 H35        -9.2384    1.4420   59.0693 H       1  ZINC001199210165    0.4500
     36 H36        -8.0810    1.7062   56.4425 H       1  ZINC001199210165    0.1400
     37 H37        -9.2312    3.3627   51.3209 H       1  ZINC001199210165    0.1400
     38 H38        -7.8763    4.2656   49.4778 H       1  ZINC001199210165    0.1700
@<TRIPOS>BOND
     1     1     2    1
     2     1    24    1
     3     1    25    1
     4     1    26    1
     5     2     3    1
     6     2     4    1
     7     2    27    1
     8     3    28    1
     9     3    29    1
    10     3    30    1
    11     4     5    1
    12     5    23   ar
    13     5     6   ar
    14     6     7   ar
    15     6    31    1
    16     7     8    1
    17     7    21   ar
    18     8     9    2
    19     8    10   am
    20    10    11    1
    21    10    32    1
    22    11    20   ar
    23    11    12   ar
    24    12    13   ar
    25    12    33    1
    26    13    14   ar
    27    13    34    1
    28    14    19   ar
    29    14    15    1
    30    15    16    1
    31    15    17    2
    32    17    18    1
    33    18    19    1
    34    18    35    1
    35    19    20   ar
    36    20    36    1
    37    21    22   ar
    38    21    37    1
    39    22    23   ar
    40    22    38    1
@<TRIPOS>SUBSTRUCTURE
     1 ZINC001199210165        1 TEMP              0 ****  ****    0 ROOT


##########                                Name:    ZINC000430767928
##########                DOCK_Rotatable_Bonds:                   4
##########                         Heavy_Atoms:                  25
##########                    Molecular_Weight:             358.505
##########                DOCK_Rotatable_Bonds:                   4
##########                       Formal_Charge:          -0.0100002
##########                     HBond_Acceptors:                   5
##########                        HBond_Donors:                   0
##########                         Heavy_Atoms:                  25
##########                          Grid_Score:          -27.597107
##########                     Grid_vdw_energy:          -28.238325
##########                      Grid_es_energy:            0.641218
##########           Internal_energy_repulsive:           17.262575

@<TRIPOS>MOLECULE
ZINC000430767928
 51 55 1 0 0
SMALL
USER_CHARGES


@<TRIPOS>ATOM
      1 O1         -6.7006    2.7652   50.1688 O.2     1  ZINC000430767928   -0.4600
      2 C2         -5.7498    3.0994   50.8426 C.2     1  ZINC000430767928    0.5300
      3 C3         -4.4205    3.6234   50.3554 C.3     1  ZINC000430767928    0.0400
      4 H4         -4.4864    4.6344   49.9532 H       1  ZINC000430767928    0.1400
      5 C5         -3.7439    2.6355   49.3829 C.3     1  ZINC000430767928   -0.1100
      6 C6         -2.2378    2.8755   49.6605 C.3     1  ZINC000430767928   -0.1000
      7 H7         -1.8234    3.5696   48.9293 H       1  ZINC000430767928    0.1000
      8 C8         -1.4730    1.5508   49.6281 C.3     1  ZINC000430767928   -0.0800
      9 C9         -1.5970    0.9240   48.2379 C.3     1  ZINC000430767928   -0.1100
     10 C10        -0.8322   -0.4008   48.2056 C.3     1  ZINC000430767928   -0.1200
     11 C11         0.6433   -0.1456   48.5202 C.3     1  ZINC000430767928   -0.1200
     12 C12         0.7672    0.4811   49.9104 C.3     1  ZINC000430767928   -0.1200
     13 C13         0.0024    1.8059   49.9427 C.3     1  ZINC000430767928   -0.1200
     14 C14        -2.1886    3.4925   51.0750 C.3     1  ZINC000430767928    0.1600
     15 N15        -3.5723    3.5321   51.5769 N.am    1  ZINC000430767928   -0.6400
     16 C16        -4.4272    3.4709   52.6029 C.2     1  ZINC000430767928    0.7400
     17 O17        -4.1291    3.7112   53.7564 O.2     1  ZINC000430767928   -0.5100
     18 N18        -5.6555    3.0877   52.1908 N.am    1  ZINC000430767928   -0.5800
     19 C19        -6.7455    2.7009   53.0901 C.3     1  ZINC000430767928    0.2600
     20 H20        -6.3296    2.3402   54.0309 H       1  ZINC000430767928    0.1200
     21 C21        -7.6259    3.8948   53.3549 C.2     1  ZINC000430767928   -0.2100
     22 C22        -8.8767    3.8409   53.8153 C.2     1  ZINC000430767928   -0.1200
     23 C23        -9.4906    5.0704   53.9814 C.2     1  ZINC000430767928   -0.1400
     24 C24        -8.7384    6.1227   53.6558 C.2     1  ZINC000430767928   -0.2300
     25 S25        -7.1589    5.5730   53.1112 S.3     1  ZINC000430767928    0.1700
     26 C26        -7.5735    1.5908   52.4396 C.3     1  ZINC000430767928   -0.1700
     27 C27        -6.9000    0.2313   52.2407 C.3     1  ZINC000430767928   -0.1700
     28 C28        -7.9747    0.4027   53.3163 C.3     1  ZINC000430767928   -0.1600
     29 H29        -4.0224    1.6082   49.6180 H       1  ZINC000430767928    0.0800
     30 H30        -3.9911    2.8784   48.3494 H       1  ZINC000430767928    0.1000
     31 H31        -1.8908    0.8717   50.3714 H       1  ZINC000430767928    0.0700
     32 H32        -2.6482    0.7422   48.0138 H       1  ZINC000430767928    0.0600
     33 H33        -1.1792    1.6030   47.4947 H       1  ZINC000430767928    0.0700
     34 H34        -1.2501   -1.0797   48.9489 H       1  ZINC000430767928    0.0600
     35 H35        -0.9206   -0.8472   47.2152 H       1  ZINC000430767928    0.0600
     36 H36         1.1881   -1.0893   48.4972 H       1  ZINC000430767928    0.0600
     37 H37         1.0611    0.5334   47.7770 H       1  ZINC000430767928    0.0600
     38 H38         0.3494   -0.1978   50.6538 H       1  ZINC000430767928    0.0600
     39 H39         1.8183    0.6629   50.1346 H       1  ZINC000430767928    0.0600
     40 H40         0.4202    2.4849   49.1995 H       1  ZINC000430767928    0.0700
     41 H41         0.0908    2.2523   50.9332 H       1  ZINC000430767928    0.0600
     42 H42        -1.5663    2.8803   51.7278 H       1  ZINC000430767928    0.0900
     43 H43        -1.7934    4.5071   51.0260 H       1  ZINC000430767928    0.0800
     44 H44        -9.3728    2.9086   54.0412 H       1  ZINC000430767928    0.1400
     45 H45       -10.5020    5.1699   54.3466 H       1  ZINC000430767928    0.1400
     46 H46        -9.0503    7.1547   53.7200 H       1  ZINC000430767928    0.1600
     47 H47        -8.2829    1.9174   51.6792 H       1  ZINC000430767928    0.1200
     48 H48        -7.1663   -0.3365   51.3493 H       1  ZINC000430767928    0.1000
     49 H49        -5.8673    0.1279   52.5732 H       1  ZINC000430767928    0.1000
     50 H50        -7.6488    0.4120   54.3564 H       1  ZINC000430767928    0.1000
     51 H51        -8.9479   -0.0525   53.1323 H       1  ZINC000430767928    0.1000
@<TRIPOS>BOND
     1     1     2    2
     2     2    18   am
     3     2     3    1
     4     3     4    1
     5     3    15    1
     6     3     5    1
     7     5     6    1
     8     5    29    1
     9     5    30    1
    10     6     7    1
    11     6     8    1
    12     6    14    1
    13     8    13    1
    14     8     9    1
    15     8    31    1
    16     9    10    1
    17     9    32    1
    18     9    33    1
    19    10    11    1
    20    10    34    1
    21    10    35    1
    22    11    12    1
    23    11    36    1
    24    11    37    1
    25    12    13    1
    26    12    38    1
    27    12    39    1
    28    13    40    1
    29    13    41    1
    30    14    15    1
    31    14    42    1
    32    14    43    1
    33    15    16   am
    34    16    17    2
    35    16    18   am
    36    18    19    1
    37    19    20    1
    38    19    21    1
    39    19    26    1
    40    21    25    1
    41    21    22    2
    42    22    23    1
    43    22    44    1
    44    23    24    2
    45    23    45    1
    46    24    25    1
    47    24    46    1
    48    26    28    1
    49    26    27    1
    50    26    47    1
    51    27    28    1
    52    27    48    1
    53    27    49    1
    54    28    50    1
    55    28    51    1
@<TRIPOS>SUBSTRUCTURE
     1 ZINC000430767928        1 TEMP              0 ****  ****    0 ROOT


##########                                Name:    ZINC000521663393
##########                DOCK_Rotatable_Bonds:                   5
##########                         Heavy_Atoms:                  27
##########                    Molecular_Weight:              386.49
##########                DOCK_Rotatable_Bonds:                   5
##########                       Formal_Charge:               -0.02
##########                     HBond_Acceptors:                   6
##########                        HBond_Donors:                   1
##########                         Heavy_Atoms:                  27
##########                          Grid_Score:          -27.584137
##########                     Grid_vdw_energy:          -27.445845
##########                      Grid_es_energy:           -0.138293
##########           Internal_energy_repulsive:           20.026640

@<TRIPOS>MOLECULE
ZINC000521663393
 50 53 1 0 0
SMALL
USER_CHARGES


@<TRIPOS>ATOM
      1 C1         -2.0655    5.7386   53.2588 C.3     1  ZINC000521663393   -0.1500
      2 C2         -2.2985    4.3498   52.6606 C.3     1  ZINC000521663393    0.0800
      3 H3         -2.5347    3.6286   53.4430 H       1  ZINC000521663393    0.0900
      4 O4         -1.1534    3.9229   51.9032 O.3     1  ZINC000521663393   -0.2900
      5 C5         -1.5694    3.1745   50.8449 C.ar    1  ZINC000521663393    0.1400
      6 C6         -0.8604    2.2727   50.0562 C.ar    1  ZINC000521663393   -0.1800
      7 C7         -1.4867    1.6205   49.0112 C.ar    1  ZINC000521663393    0.1400
      8 F8         -0.7914    0.7473   48.2501 F       1  ZINC000521663393   -0.1300
      9 C9         -2.8239    1.8578   48.7409 C.ar    1  ZINC000521663393   -0.1800
     10 C10        -3.5349    2.7494   49.5242 C.ar    1  ZINC000521663393   -0.0200
     11 C11        -2.9126    3.3975   50.5678 C.ar    1  ZINC000521663393   -0.2000
     12 C12        -3.4214    4.3925   51.5973 C.3     1  ZINC000521663393    0.1700
     13 H13        -3.5113    5.3888   51.1648 H       1  ZINC000521663393    0.1200
     14 N14        -4.6993    3.9529   52.1630 N.am    1  ZINC000521663393   -0.7200
     15 C15        -5.8336    4.6152   51.8606 C.2     1  ZINC000521663393    0.5300
     16 O16        -5.7965    5.5741   51.1189 O.2     1  ZINC000521663393   -0.5000
     17 C17        -7.1478    4.1642   52.4439 C.3     1  ZINC000521663393    0.1200
     18 H18        -7.3091    4.6588   53.4018 H       1  ZINC000521663393    0.0700
     19 C19        -8.2660    4.5222   51.4991 C.ar    1  ZINC000521663393   -0.0900
     20 C20        -8.0725    4.4318   50.1333 C.ar    1  ZINC000521663393   -0.0900
     21 C21        -9.0982    4.7603   49.2668 C.ar    1  ZINC000521663393   -0.1200
     22 C22       -10.3175    5.1787   49.7658 C.ar    1  ZINC000521663393   -0.1100
     23 C23       -10.5113    5.2681   51.1316 C.ar    1  ZINC000521663393   -0.1200
     24 C24        -9.4870    4.9356   51.9983 C.ar    1  ZINC000521663393   -0.1100
     25 N25        -7.1218    2.7089   52.6425 N.3     1  ZINC000521663393   -0.5300
     26 C26        -7.0480    2.0053   51.3601 C.3     1  ZINC000521663393    0.0500
     27 C27        -6.5831    0.5623   51.5839 C.3     1  ZINC000521663393   -0.0700
     28 S28        -7.8113   -0.2852   52.6239 S.3     1  ZINC000521663393   -0.2700
     29 C29        -7.9834    0.8697   54.0186 C.3     1  ZINC000521663393   -0.0700
     30 C30        -8.2556    2.2704   53.4596 C.3     1  ZINC000521663393    0.0600
     31 H31        -2.9697    6.0708   53.7690 H       1  ZINC000521663393    0.0800
     32 H32        -1.2419    5.6937   53.9713 H       1  ZINC000521663393    0.0800
     33 H33        -1.8190    6.4407   52.4623 H       1  ZINC000521663393    0.0700
     34 H34         0.1828    2.0824   50.2614 H       1  ZINC000521663393    0.1400
     35 H35        -3.3099    1.3490   47.9215 H       1  ZINC000521663393    0.1400
     36 H36        -4.5781    2.9373   49.3172 H       1  ZINC000521663393    0.1300
     37 H37        -4.7292    3.1854   52.7553 H       1  ZINC000521663393    0.4000
     38 H38        -7.1199    4.1050   49.7435 H       1  ZINC000521663393    0.1300
     39 H39        -8.9467    4.6904   48.1997 H       1  ZINC000521663393    0.1300
     40 H40       -11.1186    5.4359   49.0888 H       1  ZINC000521663393    0.1200
     41 H41       -11.4638    5.5953   51.5216 H       1  ZINC000521663393    0.1300
     42 H42        -9.6384    5.0055   53.0654 H       1  ZINC000521663393    0.1200
     43 H43        -8.0326    2.0002   50.8926 H       1  ZINC000521663393    0.0500
     44 H44        -6.3408    2.5164   50.7067 H       1  ZINC000521663393    0.1000
     45 H45        -6.5003    0.0512   50.6248 H       1  ZINC000521663393    0.1100
     46 H46        -5.6157    0.5631   52.0864 H       1  ZINC000521663393    0.0900
     47 H47        -8.8158    0.5594   54.6504 H       1  ZINC000521663393    0.1100
     48 H48        -7.0621    0.8804   54.6010 H       1  ZINC000521663393    0.1000
     49 H49        -8.3987    2.9681   54.2846 H       1  ZINC000521663393    0.0800
     50 H50        -9.1563    2.2468   52.8463 H       1  ZINC000521663393    0.0500
@<TRIPOS>BOND
     1     1     2    1
     2     1    31    1
     3     1    32    1
     4     1    33    1
     5     2     3    1
     6     2    12    1
     7     2     4    1
     8     4     5    1
     9     5    11   ar
    10     5     6   ar
    11     6     7   ar
    12     6    34    1
    13     7     8    1
    14     7     9   ar
    15     9    10   ar
    16     9    35    1
    17    10    11   ar
    18    10    36    1
    19    11    12    1
    20    12    13    1
    21    12    14    1
    22    14    15   am
    23    14    37    1
    24    15    16    2
    25    15    17    1
    26    17    18    1
    27    17    19    1
    28    17    25    1
    29    19    24   ar
    30    19    20   ar
    31    20    21   ar
    32    20    38    1
    33    21    22   ar
    34    21    39    1
    35    22    23   ar
    36    22    40    1
    37    23    24   ar
    38    23    41    1
    39    24    42    1
    40    25    30    1
    41    25    26    1
    42    26    27    1
    43    26    43    1
    44    26    44    1
    45    27    28    1
    46    27    45    1
    47    27    46    1
    48    28    29    1
    49    29    30    1
    50    29    47    1
    51    29    48    1
    52    30    49    1
    53    30    50    1
@<TRIPOS>SUBSTRUCTURE
     1 ZINC000521663393        1 TEMP              0 ****  ****    0 ROOT


##########                                Name:    ZINC000543429378
##########                DOCK_Rotatable_Bonds:                   6
##########                         Heavy_Atoms:                  29
##########                    Molecular_Weight:             406.408
##########                DOCK_Rotatable_Bonds:                   6
##########                       Formal_Charge:           0.0100003
##########                     HBond_Acceptors:                   9
##########                        HBond_Donors:                   1
##########                         Heavy_Atoms:                  29
##########                          Grid_Score:          -27.582794
##########                     Grid_vdw_energy:          -27.531271
##########                      Grid_es_energy:           -0.051522
##########           Internal_energy_repulsive:           42.636040

@<TRIPOS>MOLECULE
ZINC000543429378
 50 53 1 0 0
SMALL
USER_CHARGES


@<TRIPOS>ATOM
      1 O1         -4.2046    1.6053   51.0271 O.2     1  ZINC000543429378   -0.5100
      2 C2         -4.2985    2.4045   50.1197 C.2     1  ZINC000543429378    0.5200
      3 N3         -5.4281    3.1242   49.9697 N.am    1  ZINC000543429378   -0.6600
      4 C4         -6.4947    2.9451   50.8574 C.ar    1  ZINC000543429378    0.1900
      5 C5         -7.0829    4.0450   51.4684 C.ar    1  ZINC000543429378   -0.1600
      6 C6         -8.1365    3.8681   52.3446 C.ar    1  ZINC000543429378   -0.0600
      7 C7         -8.6073    2.5977   52.6156 C.ar    1  ZINC000543429378   -0.2100
      8 C8         -8.0233    1.4949   52.0077 C.ar    1  ZINC000543429378    0.1300
      9 O9         -8.4874    0.2459   52.2753 O.3     1  ZINC000543429378   -0.3100
     10 C10        -9.5510    0.1384   53.2236 C.3     1  ZINC000543429378    0.6000
     11 F11        -9.1571    0.7190   54.4340 F       1  ZINC000543429378   -0.1600
     12 F12       -10.6811    0.8020   52.7341 F       1  ZINC000543429378   -0.1300
     13 F13        -9.8560   -1.2110   53.4313 F       1  ZINC000543429378   -0.1600
     14 C14        -6.9700    1.6686   51.1240 C.ar    1  ZINC000543429378   -0.1300
     15 C15        -3.1497    2.5974   49.1636 C.3     1  ZINC000543429378    0.0700
     16 H16        -3.5249    2.9216   48.1930 H       1  ZINC000543429378    0.1200
     17 C17        -2.3606    1.2683   49.0091 C.3     1  ZINC000543429378   -0.1200
     18 C18        -0.9104    1.7697   48.9299 C.3     1  ZINC000543429378   -0.1000
     19 H19        -0.6843    2.1601   47.9377 H       1  ZINC000543429378    0.0900
     20 C20         0.1455    0.7727   49.3762 C.3     1  ZINC000543429378   -0.1100
     21 C21         1.5004    1.4977   49.3449 C.3     1  ZINC000543429378   -0.1200
     22 C22         1.4950    2.7318   50.2422 C.3     1  ZINC000543429378   -0.1100
     23 C23         0.3409    3.6819   49.8816 C.3     1  ZINC000543429378   -0.0900
     24 C24        -0.9520    2.9070   49.9864 C.3     1  ZINC000543429378    0.0700
     25 H25        -1.0185    2.4506   50.9740 H       1  ZINC000543429378    0.0900
     26 N26        -2.2044    3.6085   49.7049 N.3     1  ZINC000543429378   -0.4300
     27 C27        -2.7173    4.1879   50.8524 C.ar    1  ZINC000543429378    0.5000
     28 N28        -2.5380    3.5834   52.0177 N.ar    1  ZINC000543429378   -0.5300
     29 C29        -3.0149    4.1105   53.1333 C.ar    1  ZINC000543429378    0.1800
     30 C30        -3.7085    5.3089   53.0722 C.ar    1  ZINC000543429378   -0.2500
     31 C31        -3.8778    5.9143   51.8370 C.ar    1  ZINC000543429378    0.1800
     32 N32        -3.3711    5.3366   50.7603 N.ar    1  ZINC000543429378   -0.5300
     33 H33        -5.5016    3.7662   49.2463 H       1  ZINC000543429378    0.4200
     34 H34        -6.7163    5.0390   51.2588 H       1  ZINC000543429378    0.1400
     35 H35        -8.5926    4.7245   52.8189 H       1  ZINC000543429378    0.1400
     36 H36        -9.4306    2.4626   53.3014 H       1  ZINC000543429378    0.1400
     37 H37        -6.5145    0.8117   50.6501 H       1  ZINC000543429378    0.1500
     38 H38        -2.5041    0.6265   49.8783 H       1  ZINC000543429378    0.0800
     39 H39        -2.6445    0.7506   48.0929 H       1  ZINC000543429378    0.0900
     40 H40        -0.0699    0.4328   50.3892 H       1  ZINC000543429378    0.0700
     41 H41         0.1642   -0.0778   48.6947 H       1  ZINC000543429378    0.0700
     42 H42         2.2783    0.8139   49.6843 H       1  ZINC000543429378    0.0600
     43 H43         1.7177    1.8027   48.3213 H       1  ZINC000543429378    0.0600
     44 H44         1.3871    2.4174   51.2803 H       1  ZINC000543429378    0.0600
     45 H45         2.4414    3.2603   50.1274 H       1  ZINC000543429378    0.0700
     46 H46         0.3250    4.5247   50.5727 H       1  ZINC000543429378    0.0700
     47 H47         0.4624    4.0416   48.8598 H       1  ZINC000543429378    0.0700
     48 H48        -2.8659    3.6128   54.0801 H       1  ZINC000543429378    0.1600
     49 H49        -4.1087    5.7610   53.9677 H       1  ZINC000543429378    0.1400
     50 H50        -4.4137    6.8485   51.7550 H       1  ZINC000543429378    0.1600
@<TRIPOS>BOND
     1     1     2    2
     2     2     3   am
     3     2    15    1
     4     3     4    1
     5     3    33    1
     6     4    14   ar
     7     4     5   ar
     8     5     6   ar
     9     5    34    1
    10     6     7   ar
    11     6    35    1
    12     7     8   ar
    13     7    36    1
    14     8     9    1
    15     8    14   ar
    16     9    10    1
    17    10    11    1
    18    10    12    1
    19    10    13    1
    20    14    37    1
    21    15    16    1
    22    15    26    1
    23    15    17    1
    24    17    18    1
    25    17    38    1
    26    17    39    1
    27    18    19    1
    28    18    24    1
    29    18    20    1
    30    20    21    1
    31    20    40    1
    32    20    41    1
    33    21    22    1
    34    21    42    1
    35    21    43    1
    36    22    23    1
    37    22    44    1
    38    22    45    1
    39    23    24    1
    40    23    46    1
    41    23    47    1
    42    24    25    1
    43    24    26    1
    44    26    27    1
    45    27    32   ar
    46    27    28   ar
    47    28    29   ar
    48    29    30   ar
    49    29    48    1
    50    30    31   ar
    51    30    49    1
    52    31    32   ar
    53    31    50    1
@<TRIPOS>SUBSTRUCTURE
     1 ZINC000543429378        1 TEMP              0 ****  ****    0 ROOT


##########                                Name:    ZINC000518937710
##########                DOCK_Rotatable_Bonds:                   6
##########                         Heavy_Atoms:                  25
##########                    Molecular_Weight:             397.421
##########                DOCK_Rotatable_Bonds:                   6
##########                       Formal_Charge:          -0.0199997
##########                     HBond_Acceptors:                  11
##########                        HBond_Donors:                   0
##########                         Heavy_Atoms:                  25
##########                          Grid_Score:          -27.512339
##########                     Grid_vdw_energy:          -28.019859
##########                      Grid_es_energy:            0.507521
##########           Internal_energy_repulsive:           19.250465

@<TRIPOS>MOLECULE
ZINC000518937710
 42 44 1 0 0
SMALL
USER_CHARGES


@<TRIPOS>ATOM
      1 C1          0.7501    3.9851   46.7902 C.3     1  ZINC000518937710   -0.1900
      2 C2          0.1235    2.7677   47.4729 C.3     1  ZINC000518937710    0.1700
      3 H3         -0.8013    3.0645   47.9676 H       1  ZINC000518937710    0.1100
      4 C4         -0.1803    1.6953   46.4247 C.3     1  ZINC000518937710   -0.6600
      5 S5         -1.8665    1.9244   45.7963 S.o2    1  ZINC000518937710    2.4000
      6 C6         -2.0039    0.5754   44.5915 C.3     1  ZINC000518937710   -0.6600
      7 O7         -2.7816    1.6802   46.8557 O.2     1  ZINC000518937710   -0.9200
      8 O8         -1.9259    3.1614   45.0995 O.2     1  ZINC000518937710   -0.9300
      9 N9          1.0572    2.2298   48.4654 N.am    1  ZINC000518937710   -0.9600
     10 C10         2.4999    2.2781   48.2155 C.3     1  ZINC000518937710    0.0800
     11 C11         3.2836    0.9705   48.3454 C.3     1  ZINC000518937710   -0.1800
     12 C12         3.0240    1.5727   46.9630 C.3     1  ZINC000518937710   -0.1800
     13 S13         0.4819    1.5670   49.8697 S.o2    1  ZINC000518937710    2.6900
     14 O14        -0.4671    0.5804   49.4884 O.2     1  ZINC000518937710   -0.9400
     15 O15         1.6181    1.2825   50.6741 O.2     1  ZINC000518937710   -0.9400
     16 C16        -0.4198    2.8264   50.7097 C.ar    1  ZINC000518937710   -0.6400
     17 C17         0.2319    3.6770   51.5831 C.ar    1  ZINC000518937710   -0.0300
     18 C18        -0.4723    4.6663   52.2439 C.ar    1  ZINC000518937710   -0.1300
     19 C19        -1.8310    4.8095   52.0337 C.ar    1  ZINC000518937710   -0.0300
     20 C20        -2.4907    3.9606   51.1599 C.ar    1  ZINC000518937710    0.0200
     21 C21        -1.7804    2.9673   50.4902 C.ar    1  ZINC000518937710    0.1900
     22 O22        -2.6461    2.2714   49.6967 O.3     1  ZINC000518937710   -0.2800
     23 C23        -3.9603    2.5834   50.1956 C.3     1  ZINC000518937710    0.5700
     24 F24        -4.8862    2.6276   49.1478 F       1  ZINC000518937710   -0.1200
     25 F25        -4.3549    1.6490   51.1593 F       1  ZINC000518937710   -0.1400
     26 O26        -3.8007    3.8900   50.7824 O.3     1  ZINC000518937710   -0.2900
     27 H27         1.6933    3.6962   46.3264 H       1  ZINC000518937710    0.1000
     28 H28         0.0706    4.3632   46.0265 H       1  ZINC000518937710    0.0800
     29 H29         0.9330    4.7632   47.5313 H       1  ZINC000518937710    0.0700
     30 H30         0.5289    1.7807   45.6014 H       1  ZINC000518937710    0.1600
     31 H31        -0.0928    0.7083   46.8788 H       1  ZINC000518937710    0.1400
     32 H32        -1.9494   -0.3819   45.1100 H       1  ZINC000518937710    0.1300
     33 H33        -2.9572    0.6512   44.0682 H       1  ZINC000518937710    0.1300
     34 H34        -1.1880    0.6460   43.8723 H       1  ZINC000518937710    0.1300
     35 H35         2.9996    3.1972   48.5217 H       1  ZINC000518937710    0.1500
     36 H36         4.2991    1.0291   48.7373 H       1  ZINC000518937710    0.1100
     37 H37         2.7257    0.0743   48.6167 H       1  ZINC000518937710    0.1000
     38 H38         2.2954    1.0727   46.3250 H       1  ZINC000518937710    0.1000
     39 H39         3.8687    2.0276   46.4455 H       1  ZINC000518937710    0.1000
     40 H40         1.2934    3.5682   51.7498 H       1  ZINC000518937710    0.1600
     41 H41         0.0402    5.3285   52.9260 H       1  ZINC000518937710    0.1600
     42 H42        -2.3786    5.5832   52.5513 H       1  ZINC000518937710    0.1500
@<TRIPOS>BOND
     1     1     2    1
     2     1    27    1
     3     1    28    1
     4     1    29    1
     5     2     3    1
     6     2     4    1
     7     2     9    1
     8     4     5    1
     9     4    30    1
    10     4    31    1
    11     5     6    1
    12     5     7    2
    13     5     8    2
    14     6    32    1
    15     6    33    1
    16     6    34    1
    17     9    10    1
    18     9    13   am
    19    10    12    1
    20    10    11    1
    21    10    35    1
    22    11    12    1
    23    11    36    1
    24    11    37    1
    25    12    38    1
    26    12    39    1
    27    13    14    2
    28    13    15    2
    29    13    16    1
    30    16    21   ar
    31    16    17   ar
    32    17    18   ar
    33    17    40    1
    34    18    19   ar
    35    18    41    1
    36    19    20   ar
    37    19    42    1
    38    20    26    1
    39    20    21   ar
    40    21    22    1
    41    22    23    1
    42    23    24    1
    43    23    25    1
    44    23    26    1
@<TRIPOS>SUBSTRUCTURE
     1 ZINC000518937710        1 TEMP              0 ****  ****    0 ROOT


##########                                Name:    ZINC000951315041
##########                DOCK_Rotatable_Bonds:                   5
##########                         Heavy_Atoms:                  25
##########                    Molecular_Weight:             340.382
##########                DOCK_Rotatable_Bonds:                   5
##########                       Formal_Charge:          0.00999974
##########                     HBond_Acceptors:                   7
##########                        HBond_Donors:                   1
##########                         Heavy_Atoms:                  25
##########                          Grid_Score:          -27.457258
##########                     Grid_vdw_energy:          -26.180267
##########                      Grid_es_energy:           -1.276991
##########           Internal_energy_repulsive:           10.412406

@<TRIPOS>MOLECULE
ZINC000951315041
 45 47 1 0 0
SMALL
USER_CHARGES


@<TRIPOS>ATOM
      1 C1          4.8167    1.5014   44.0988 C.3     1  ZINC000951315041    0.0500
      2 N2          3.3651    1.3257   44.0091 N.am    1  ZINC000951315041   -0.4900
      3 C3          2.5695    1.9093   44.9246 C.2     1  ZINC000951315041    0.1700
      4 C4          1.1995    1.7569   44.8598 C.2     1  ZINC000951315041   -0.2400
      5 C5          0.3321    2.3982   45.8651 C.2     1  ZINC000951315041    0.5800
      6 O6         -0.3310    3.3720   45.5636 O.2     1  ZINC000951315041   -0.5200
      7 N7          0.2742    1.9052   47.1181 N.am    1  ZINC000951315041   -0.6000
      8 C8          1.0693    0.7295   47.4975 C.3     1  ZINC000951315041    0.1100
      9 C9          0.1361   -0.3207   48.1082 C.3     1  ZINC000951315041   -0.1300
     10 C10        -0.6464    0.3083   49.2634 C.3     1  ZINC000951315041   -0.1300
     11 C11        -1.4997    1.4634   48.7344 C.3     1  ZINC000951315041    0.1300
     12 H12        -2.1801    1.0920   47.9682 H       1  ZINC000951315041    0.1000
     13 N13        -2.2728    2.0440   49.8350 N.am    1  ZINC000951315041   -0.7200
     14 C14        -3.5449    2.4392   49.6300 C.2     1  ZINC000951315041    0.5700
     15 O15        -4.0503    2.3150   48.5315 O.2     1  ZINC000951315041   -0.5200
     16 C16        -4.3257    3.0235   50.7411 C.ar    1  ZINC000951315041   -0.1900
     17 C17        -3.6932    3.4142   51.9272 C.ar    1  ZINC000951315041   -0.0100
     18 C18        -4.4693    3.9562   52.9367 C.ar    1  ZINC000951315041   -0.1800
     19 C19        -5.8319    4.0934   52.7435 C.ar    1  ZINC000951315041    0.1300
     20 N20        -6.4012    3.7158   51.6146 N.ar    1  ZINC000951315041   -0.4900
     21 C21        -5.7050    3.2003   50.6230 C.ar    1  ZINC000951315041    0.1400
     22 C22        -0.5807    2.5372   48.1323 C.3     1  ZINC000951315041    0.1000
     23 C23         0.6331    0.9801   43.8201 C.2     1  ZINC000951315041    0.0100
     24 C24         1.4567    0.4005   42.9065 C.2     1  ZINC000951315041   -0.2300
     25 C25         2.8479    0.5880   43.0100 C.2     1  ZINC000951315041    0.5100
     26 O26         3.5907    0.0705   42.1927 O.2     1  ZINC000951315041   -0.5400
     27 H27         5.2985    0.9675   43.2797 H       1  ZINC000951315041    0.1100
     28 H28         5.0590    2.5622   44.0332 H       1  ZINC000951315041    0.0800
     29 H29         5.1726    1.1055   45.0498 H       1  ZINC000951315041    0.0800
     30 H30         3.0064    2.5008   45.7156 H       1  ZINC000951315041    0.1700
     31 H31         1.5555    0.3164   46.6137 H       1  ZINC000951315041    0.1000
     32 H32         1.8229    1.0188   48.2299 H       1  ZINC000951315041    0.0700
     33 H33        -0.5597   -0.6753   47.3479 H       1  ZINC000951315041    0.0700
     34 H34         0.7256   -1.1581   48.4815 H       1  ZINC000951315041    0.0900
     35 H35        -1.2933   -0.4436   49.7155 H       1  ZINC000951315041    0.0800
     36 H36         0.0508    0.6848   50.0119 H       1  ZINC000951315041    0.0700
     37 H37        -1.8692    2.1442   50.7114 H       1  ZINC000951315041    0.4000
     38 H38        -2.6269    3.2953   52.0514 H       1  ZINC000951315041    0.1500
     39 H39        -4.0157    4.2685   53.8658 H       1  ZINC000951315041    0.1500
     40 H40        -6.4400    4.5160   53.5297 H       1  ZINC000951315041    0.1600
     41 H41        -6.2070    2.9034   49.7140 H       1  ZINC000951315041    0.1600
     42 H42         0.0364    2.9726   48.9182 H       1  ZINC000951315041    0.0700
     43 H43        -1.1847    3.3154   47.6658 H       1  ZINC000951315041    0.0900
     44 H44        -0.4369    0.8496   43.7540 H       1  ZINC000951315041    0.1400
     45 H45         1.0462   -0.1965   42.1055 H       1  ZINC000951315041    0.1600
@<TRIPOS>BOND
     1     1     2    1
     2     1    27    1
     3     1    28    1
     4     1    29    1
     5     2    25   am
     6     2     3    1
     7     3     4    2
     8     3    30    1
     9     4     5    1
    10     4    23    1
    11     5     6    2
    12     5     7   am
    13     7    22    1
    14     7     8    1
    15     8     9    1
    16     8    31    1
    17     8    32    1
    18     9    10    1
    19     9    33    1
    20     9    34    1
    21    10    11    1
    22    10    35    1
    23    10    36    1
    24    11    12    1
    25    11    13    1
    26    11    22    1
    27    13    14   am
    28    13    37    1
    29    14    15    2
    30    14    16    1
    31    16    21   ar
    32    16    17   ar
    33    17    18   ar
    34    17    38    1
    35    18    19   ar
    36    18    39    1
    37    19    20   ar
    38    19    40    1
    39    20    21   ar
    40    21    41    1
    41    22    42    1
    42    22    43    1
    43    23    24    2
    44    23    44    1
    45    24    25    1
    46    24    45    1
    47    25    26    2
@<TRIPOS>SUBSTRUCTURE
     1 ZINC000951315041        1 TEMP              0 ****  ****    0 ROOT


##########                                Name:    ZINC000879023512
##########                DOCK_Rotatable_Bonds:                   4
##########                         Heavy_Atoms:                  20
##########                    Molecular_Weight:             346.156
##########                DOCK_Rotatable_Bonds:                   4
##########                       Formal_Charge:        -5.96046e-08
##########                     HBond_Acceptors:                   7
##########                        HBond_Donors:                   1
##########                         Heavy_Atoms:                  20
##########                          Grid_Score:          -27.410578
##########                     Grid_vdw_energy:          -28.438019
##########                      Grid_es_energy:            1.027440
##########           Internal_energy_repulsive:            3.083850

@<TRIPOS>MOLECULE
ZINC000879023512
 33 34 1 0 0
SMALL
USER_CHARGES


@<TRIPOS>ATOM
      1 O1         -3.0487    2.7370   50.7313 O.2     1  ZINC000879023512   -0.5600
      2 C2         -3.2709    2.2379   49.6450 C.2     1  ZINC000879023512    0.7200
      3 N3         -4.5161    1.8256   49.3350 N.am    1  ZINC000879023512   -0.6800
      4 C4         -5.5521    1.9669   50.2656 C.ar    1  ZINC000879023512    0.1800
      5 C5         -5.9807    3.2328   50.6422 C.ar    1  ZINC000879023512   -0.0900
      6 C6         -7.0033    3.3695   51.5608 C.ar    1  ZINC000879023512   -0.0700
      7 C7         -7.5999    2.2467   52.1057 C.ar    1  ZINC000879023512   -0.0700
      8 Br8        -8.9995    2.4378   53.3629 Br      1  ZINC000879023512    0.0200
      9 C9         -7.1747    0.9839   51.7321 C.ar    1  ZINC000879023512    0.0000
     10 N10        -7.8155   -0.2152   52.3173 N.pl3   1  ZINC000879023512    0.0200
     11 O11        -7.4417   -1.3269   51.9889 O.2     1  ZINC000879023512   -0.1500
     12 O12        -8.7165   -0.0903   53.1272 O.2     1  ZINC000879023512   -0.1300
     13 C13        -6.1571    0.8414   50.8096 C.ar    1  ZINC000879023512   -0.0500
     14 N14        -2.2733    2.1018   48.7491 N.am    1  ZINC000879023512   -0.6300
     15 C15        -0.8738    2.5010   48.9579 C.3     1  ZINC000879023512    0.0900
     16 C16        -0.1067    2.1792   47.6581 C.3     1  ZINC000879023512   -0.1200
     17 C17        -1.2324    2.1397   46.5910 C.3     1  ZINC000879023512   -0.1400
     18 H18        -1.4787    3.1438   46.2455 H       1  ZINC000879023512    0.1000
     19 C19        -0.8439    1.2388   45.4170 C.3     1  ZINC000879023512    0.0700
     20 F20         0.2873    1.7624   44.7818 F       1  ZINC000879023512   -0.2100
     21 C21        -2.4032    1.5221   47.3999 C.3     1  ZINC000879023512    0.1300
     22 H22        -4.6942    1.4311   48.4670 H       1  ZINC000879023512    0.4200
     23 H23        -5.5147    4.1097   50.2176 H       1  ZINC000879023512    0.1600
     24 H24        -7.3370    4.3539   51.8540 H       1  ZINC000879023512    0.1600
     25 H25        -5.8260   -0.1443   50.5181 H       1  ZINC000879023512    0.1800
     26 H26        -0.8201    3.5698   49.1651 H       1  ZINC000879023512    0.0700
     27 H27        -0.4478    1.9384   49.7887 H       1  ZINC000879023512    0.0700
     28 H28         0.6131    2.9655   47.4303 H       1  ZINC000879023512    0.0900
     29 H29         0.3886    1.2112   47.7321 H       1  ZINC000879023512    0.0900
     30 H30        -0.6227    0.2371   45.7855 H       1  ZINC000879023512    0.0800
     31 H31        -1.6697    1.1907   44.7072 H       1  ZINC000879023512    0.0800
     32 H32        -2.3080    0.4369   47.4367 H       1  ZINC000879023512    0.0800
     33 H33        -3.3594    1.8052   46.9596 H       1  ZINC000879023512    0.0900
@<TRIPOS>BOND
     1     1     2    2
     2     2     3   am
     3     2    14   am
     4     3     4    1
     5     3    22    1
     6     4    13   ar
     7     4     5   ar
     8     5     6   ar
     9     5    23    1
    10     6     7   ar
    11     6    24    1
    12     7     8    1
    13     7     9   ar
    14     9    10    1
    15     9    13   ar
    16    10    11    2
    17    10    12    2
    18    13    25    1
    19    14    21    1
    20    14    15    1
    21    15    16    1
    22    15    26    1
    23    15    27    1
    24    16    17    1
    25    16    28    1
    26    16    29    1
    27    17    18    1
    28    17    19    1
    29    17    21    1
    30    19    20    1
    31    19    30    1
    32    19    31    1
    33    21    32    1
    34    21    33    1
@<TRIPOS>SUBSTRUCTURE
     1 ZINC000879023512        1 TEMP              0 ****  ****    0 ROOT


##########                                Name:    ZINC000540473851
##########                DOCK_Rotatable_Bonds:                   5
##########                         Heavy_Atoms:                  29
##########                    Molecular_Weight:             411.503
##########                DOCK_Rotatable_Bonds:                   5
##########                       Formal_Charge:           0.0200001
##########                     HBond_Acceptors:                   8
##########                        HBond_Donors:                   0
##########                         Heavy_Atoms:                  29
##########                          Grid_Score:          -27.318758
##########                     Grid_vdw_energy:          -27.508154
##########                      Grid_es_energy:            0.189395
##########           Internal_energy_repulsive:           26.816502

@<TRIPOS>MOLECULE
ZINC000540473851
 51 54 1 0 0
SMALL
USER_CHARGES


@<TRIPOS>ATOM
      1 C1        -11.4597    1.1327   52.7365 C.3     1  ZINC000540473851   -0.0800
      2 C2        -11.2190    0.2056   53.9000 C.2     1  ZINC000540473851    0.1500
      3 C3        -10.1049   -0.5839   54.0062 C.2     1  ZINC000540473851   -0.3100
      4 C4         -9.0004   -0.6568   53.0419 C.2     1  ZINC000540473851    0.6000
      5 O5         -9.0227   -1.4875   52.1532 O.2     1  ZINC000540473851   -0.5100
      6 N6         -7.9618    0.1964   53.1412 N.am    1  ZINC000540473851   -0.6100
      7 C7         -6.8479    0.1446   52.1822 C.3     1  ZINC000540473851    0.1000
      8 C8         -6.6151    1.5549   51.6299 C.3     1  ZINC000540473851    0.0400
      9 N9         -6.4297    2.4904   52.7473 N.3     1  ZINC000540473851   -0.5300
     10 C10        -6.0339    3.8190   52.2614 C.3     1  ZINC000540473851    0.1200
     11 H11        -6.2507    4.5650   53.0260 H       1  ZINC000540473851    0.0500
     12 C12        -6.8163    4.1506   50.9890 C.3     1  ZINC000540473851   -0.1400
     13 C13        -4.5576    3.8240   51.9589 C.ar    1  ZINC000540473851   -0.0500
     14 C14        -4.1210    3.8085   50.6476 C.ar    1  ZINC000540473851   -0.1000
     15 C15        -2.7669    3.8131   50.3685 C.ar    1  ZINC000540473851   -0.0900
     16 C16        -1.8483    3.8332   51.4005 C.ar    1  ZINC000540473851   -0.1500
     17 C17        -2.2845    3.8492   52.7148 C.ar    1  ZINC000540473851    0.1000
     18 F18        -1.3873    3.8689   53.7246 F       1  ZINC000540473851   -0.1400
     19 C19        -3.6407    3.8500   52.9929 C.ar    1  ZINC000540473851   -0.1500
     20 C20        -7.6376    2.5726   53.5794 C.3     1  ZINC000540473851    0.0400
     21 C21        -7.9153    1.2080   54.2079 C.3     1  ZINC000540473851    0.1200
     22 S22       -10.2350   -1.4960   55.5081 S.3     1  ZINC000540473851    0.2800
     23 C23       -11.7358   -0.7505   55.8447 C.2     1  ZINC000540473851    0.0800
     24 C24       -12.5584   -1.0153   57.0456 C.ar    1  ZINC000540473851    0.3800
     25 N25       -13.7530   -0.4474   57.1507 N.ar    1  ZINC000540473851   -0.5100
     26 C26       -14.5126   -0.6632   58.2101 C.ar    1  ZINC000540473851    0.1600
     27 C27       -14.0471   -1.4946   59.2188 C.ar    1  ZINC000540473851   -0.2100
     28 C28       -12.7935   -2.0723   59.0769 C.ar    1  ZINC000540473851    0.1500
     29 N29       -12.0865   -1.8195   57.9896 N.ar    1  ZINC000540473851   -0.4700
     30 N30       -12.0511    0.0879   54.8990 N.2     1  ZINC000540473851   -0.4300
     31 H31       -11.0268    2.1091   52.9542 H       1  ZINC000540473851    0.0900
     32 H32       -10.9945    0.7205   51.8411 H       1  ZINC000540473851    0.0800
     33 H33       -12.5321    1.2391   52.5726 H       1  ZINC000540473851    0.0800
     34 H34        -5.9467   -0.2046   52.6863 H       1  ZINC000540473851    0.0900
     35 H35        -7.0993   -0.5317   51.3652 H       1  ZINC000540473851    0.0900
     36 H36        -5.7240    1.5572   51.0021 H       1  ZINC000540473851    0.1000
     37 H37        -7.4780    1.8610   51.0386 H       1  ZINC000540473851    0.0400
     38 H38        -6.5996    3.4047   50.2244 H       1  ZINC000540473851    0.0700
     39 H39        -7.8842    4.1470   51.2078 H       1  ZINC000540473851    0.0600
     40 H40        -6.5227    5.1365   50.6285 H       1  ZINC000540473851    0.0600
     41 H41        -4.8383    3.7924   49.8402 H       1  ZINC000540473851    0.1400
     42 H42        -2.4268    3.8005   49.3434 H       1  ZINC000540473851    0.1300
     43 H43        -0.7906    3.8361   51.1823 H       1  ZINC000540473851    0.1300
     44 H44        -3.9821    3.8629   54.0174 H       1  ZINC000540473851    0.1300
     45 H45        -7.4881    3.3128   54.3654 H       1  ZINC000540473851    0.1000
     46 H46        -8.4863    2.8645   52.9608 H       1  ZINC000540473851    0.0400
     47 H47        -8.8706    1.2339   54.7321 H       1  ZINC000540473851    0.1000
     48 H48        -7.1174    0.9577   54.9071 H       1  ZINC000540473851    0.0800
     49 H49       -15.4838   -0.1978   58.2902 H       1  ZINC000540473851    0.1800
     50 H50       -14.6474   -1.6876   60.0956 H       1  ZINC000540473851    0.1600
     51 H51       -12.4023   -2.7241   59.8440 H       1  ZINC000540473851    0.1800
@<TRIPOS>BOND
     1     1     2    1
     2     1    31    1
     3     1    32    1
     4     1    33    1
     5     2    30    1
     6     2     3    2
     7     3     4    1
     8     3    22    1
     9     4     5    2
    10     4     6   am
    11     6    21    1
    12     6     7    1
    13     7     8    1
    14     7    34    1
    15     7    35    1
    16     8     9    1
    17     8    36    1
    18     8    37    1
    19     9    10    1
    20     9    20    1
    21    10    11    1
    22    10    12    1
    23    10    13    1
    24    12    38    1
    25    12    39    1
    26    12    40    1
    27    13    19   ar
    28    13    14   ar
    29    14    15   ar
    30    14    41    1
    31    15    16   ar
    32    15    42    1
    33    16    17   ar
    34    16    43    1
    35    17    18    1
    36    17    19   ar
    37    19    44    1
    38    20    21    1
    39    20    45    1
    40    20    46    1
    41    21    47    1
    42    21    48    1
    43    22    23    1
    44    23    24    1
    45    23    30    2
    46    24    29   ar
    47    24    25   ar
    48    25    26   ar
    49    26    27   ar
    50    26    49    1
    51    27    28   ar
    52    27    50    1
    53    28    29   ar
    54    28    51    1
@<TRIPOS>SUBSTRUCTURE
     1 ZINC000540473851        1 TEMP              0 ****  ****    0 ROOT


##########                                Name:    ZINC000942661662
##########                DOCK_Rotatable_Bonds:                   6
##########                         Heavy_Atoms:                  25
##########                    Molecular_Weight:             343.426
##########                DOCK_Rotatable_Bonds:                   6
##########                       Formal_Charge:           0.0399997
##########                     HBond_Acceptors:                   6
##########                        HBond_Donors:                   1
##########                         Heavy_Atoms:                  25
##########                          Grid_Score:          -27.291111
##########                     Grid_vdw_energy:          -26.644005
##########                      Grid_es_energy:           -0.647107
##########           Internal_energy_repulsive:          166.648071

@<TRIPOS>MOLECULE
ZINC000942661662
 50 52 1 0 0
SMALL
USER_CHARGES


@<TRIPOS>ATOM
      1 C1         -2.0846    4.1207   53.9772 C.3     1  ZINC000942661662   -0.1700
      2 C2         -2.3363    5.1842   52.9065 C.3     1  ZINC000942661662    0.1000
      3 N3         -3.5073    4.8082   52.1105 N.am    1  ZINC000942661662   -0.6000
      4 C4         -4.7453    4.9539   52.6228 C.2     1  ZINC000942661662    0.6000
      5 O5         -5.7175    4.6419   51.9620 O.2     1  ZINC000942661662   -0.5200
      6 C6         -4.9211    5.4914   53.9838 C.2     1  ZINC000942661662   -0.2400
      7 C7         -6.0970    5.6927   54.6453 C.2     1  ZINC000942661662    0.0700
      8 C8         -7.4733    5.3998   54.1059 C.3     1  ZINC000942661662   -0.0900
      9 O9         -5.8209    6.1935   55.8533 O.3     1  ZINC000942661662   -0.1700
     10 C10        -4.4970    6.3345   56.0223 C.2     1  ZINC000942661662   -0.0300
     11 C11        -3.8656    5.9169   54.9144 C.2     1  ZINC000942661662   -0.1900
     12 C12        -3.3325    4.2739   50.7576 C.3     1  ZINC000942661662    0.1400
     13 H13        -3.6514    4.9993   50.0091 H       1  ZINC000942661662    0.1100
     14 C14        -4.0896    2.9303   50.5881 C.3     1  ZINC000942661662   -0.1400
     15 C15        -3.2889    2.2202   49.4762 C.3     1  ZINC000942661662    0.1000
     16 N16        -1.9444    2.8149   49.4589 N.am    1  ZINC000942661662   -0.6200
     17 C17        -0.9490    2.4816   48.6136 C.2     1  ZINC000942661662    0.6100
     18 O18         0.1284    3.0419   48.6914 O.2     1  ZINC000942661662   -0.5200
     19 C19        -1.1644    1.4436   47.5998 C.2     1  ZINC000942661662   -0.0600
     20 C20        -1.0426    0.0833   47.7878 C.2     1  ZINC000942661662   -0.0700
     21 C21        -0.6643   -0.6134   49.0694 C.3     1  ZINC000942661662   -0.0900
     22 C22        -1.3368   -0.5283   46.5650 C.2     1  ZINC000942661662   -0.2100
     23 C23        -1.6266    0.4475   45.6715 C.2     1  ZINC000942661662    0.0500
     24 C24        -2.0012    0.2309   44.2279 C.3     1  ZINC000942661662   -0.0900
     25 N25        -1.5308    1.6501   46.2891 N.pl3   1  ZINC000942661662   -0.5400
     26 C26        -1.8655    3.8377   50.5183 C.3     1  ZINC000942661662    0.0900
     27 H27        -1.2134    4.4004   54.5695 H       1  ZINC000942661662    0.0700
     28 H28        -2.9567    4.0458   54.6268 H       1  ZINC000942661662    0.0600
     29 H29        -1.9046    3.1583   53.4982 H       1  ZINC000942661662    0.0600
     30 H30        -2.5163    6.1466   53.3855 H       1  ZINC000942661662    0.0900
     31 H31        -1.4642    5.2592   52.2568 H       1  ZINC000942661662    0.0800
     32 H32        -7.7526    4.3769   54.3587 H       1  ZINC000942661662    0.0900
     33 H33        -8.1910    6.0919   54.5464 H       1  ZINC000942661662    0.0900
     34 H34        -7.4718    5.5188   53.0224 H       1  ZINC000942661662    0.1000
     35 H35        -4.0163    6.7180   56.9101 H       1  ZINC000942661662    0.2100
     36 H36        -2.7999    5.9035   54.7392 H       1  ZINC000942661662    0.1600
     37 H37        -4.0619    2.3528   51.5122 H       1  ZINC000942661662    0.1000
     38 H38        -5.1180    3.1044   50.2716 H       1  ZINC000942661662    0.0900
     39 H39        -3.2200    1.1541   49.6922 H       1  ZINC000942661662    0.0700
     40 H40        -3.7750    2.3748   48.5130 H       1  ZINC000942661662    0.0700
     41 H41        -1.5648   -0.8336   49.6427 H       1  ZINC000942661662    0.0700
     42 H42        -0.1446   -1.5431   48.8378 H       1  ZINC000942661662    0.0600
     43 H43        -0.0100    0.0327   49.6546 H       1  ZINC000942661662    0.0800
     44 H44        -1.3330   -1.5902   46.3681 H       1  ZINC000942661662    0.1400
     45 H45        -3.0830    0.1265   44.1451 H       1  ZINC000942661662    0.0800
     46 H46        -1.6721    1.0844   43.6352 H       1  ZINC000942661662    0.0700
     47 H47        -1.5195   -0.6747   43.8595 H       1  ZINC000942661662    0.0900
     48 H48        -1.6886    2.5130   45.8750 H       1  ZINC000942661662    0.4100
     49 H49        -1.2664    4.6847   50.1840 H       1  ZINC000942661662    0.0800
     50 H50        -1.4444    3.4098   51.4280 H       1  ZINC000942661662    0.1000
@<TRIPOS>BOND
     1     1     2    1
     2     1    27    1
     3     1    28    1
     4     1    29    1
     5     2     3    1
     6     2    30    1
     7     2    31    1
     8     3     4   am
     9     3    12    1
    10     4     5    2
    11     4     6    1
    12     6    11    1
    13     6     7    2
    14     7     8    1
    15     7     9    1
    16     8    32    1
    17     8    33    1
    18     8    34    1
    19     9    10    1
    20    10    11    2
    21    10    35    1
    22    11    36    1
    23    12    13    1
    24    12    26    1
    25    12    14    1
    26    14    15    1
    27    14    37    1
    28    14    38    1
    29    15    16    1
    30    15    39    1
    31    15    40    1
    32    16    17   am
    33    16    26    1
    34    17    18    2
    35    17    19    1
    36    19    25    1
    37    19    20    2
    38    20    21    1
    39    20    22    1
    40    21    41    1
    41    21    42    1
    42    21    43    1
    43    22    23    2
    44    22    44    1
    45    23    24    1
    46    23    25    1
    47    24    45    1
    48    24    46    1
    49    24    47    1
    50    25    48    1
    51    26    49    1
    52    26    50    1
@<TRIPOS>SUBSTRUCTURE
     1 ZINC000942661662        1 TEMP              0 ****  ****    0 ROOT


##########                                Name:    ZINC000130059363
##########                DOCK_Rotatable_Bonds:                   4
##########                         Heavy_Atoms:                  29
##########                    Molecular_Weight:             389.497
##########                DOCK_Rotatable_Bonds:                   4
##########                       Formal_Charge:          -0.0100003
##########                     HBond_Acceptors:                   5
##########                        HBond_Donors:                   0
##########                         Heavy_Atoms:                  29
##########                          Grid_Score:          -27.199303
##########                     Grid_vdw_energy:          -27.454456
##########                      Grid_es_energy:            0.255153
##########           Internal_energy_repulsive:           32.848778

@<TRIPOS>MOLECULE
ZINC000130059363
 56 60 1 0 0
SMALL
USER_CHARGES


@<TRIPOS>ATOM
      1 C1         -2.4715    3.8296   53.1003 C.3     1  ZINC000130059363   -0.1200
      2 C2         -3.5181    3.1672   52.2420 C.ar    1  ZINC000130059363    0.1900
      3 N3         -4.5603    2.5997   52.8085 N.ar    1  ZINC000130059363   -0.4800
      4 C4         -5.5075    2.0045   52.0929 C.ar    1  ZINC000130059363    0.2000
      5 C5         -6.6618    1.3806   52.7823 C.ar    1  ZINC000130059363   -0.0600
      6 C6         -6.9236    1.6791   54.1188 C.ar    1  ZINC000130059363   -0.1000
      7 C7         -8.0000    1.0955   54.7552 C.ar    1  ZINC000130059363   -0.1200
      8 C8         -8.8182    0.2153   54.0699 C.ar    1  ZINC000130059363   -0.1000
      9 C9         -8.5631   -0.0851   52.7438 C.ar    1  ZINC000130059363   -0.1300
     10 C10        -7.4933    0.4972   52.0951 C.ar    1  ZINC000130059363   -0.0700
     11 C11        -5.4305    1.9594   50.7010 C.ar    1  ZINC000130059363   -0.1800
     12 C12        -4.3521    2.5434   50.0664 C.ar    1  ZINC000130059363   -0.0400
     13 C13        -3.3740    3.1673   50.8528 C.ar    1  ZINC000130059363   -0.1900
     14 C14        -2.2016    3.8068   50.2217 C.2     1  ZINC000130059363    0.5700
     15 O15        -1.9893    4.9914   50.3940 O.2     1  ZINC000130059363   -0.5200
     16 N16        -1.3673    3.0772   49.4549 N.am    1  ZINC000130059363   -0.6000
     17 C17        -0.1924    3.6954   48.8240 C.3     1  ZINC000130059363    0.1000
     18 C18         1.0511    2.9004   49.2332 C.3     1  ZINC000130059363   -0.1500
     19 C19         0.8579    1.4268   48.8939 C.3     1  ZINC000130059363    0.1500
     20 H20         1.7407    0.8826   49.2297 H       1  ZINC000130059363    0.0700
     21 C21        -0.3578    0.8552   49.6209 C.3     1  ZINC000130059363   -0.1100
     22 H22        -0.2000    0.8909   50.6988 H       1  ZINC000130059363    0.1000
     23 C23        -0.5444   -0.5999   49.1626 C.3     1  ZINC000130059363   -0.1200
     24 C24        -0.9620   -0.5876   47.6899 C.3     1  ZINC000130059363   -0.1400
     25 C25        -0.0536    0.3107   46.9010 C.2     1  ZINC000130059363    0.5200
     26 O26        -0.0403    0.1964   45.6937 O.2     1  ZINC000130059363   -0.5400
     27 N27         0.7239    1.2310   47.4590 N.am    1  ZINC000130059363   -0.5700
     28 C28         1.5225    2.0884   46.5796 C.3     1  ZINC000130059363    0.0700
     29 C29         2.9945    2.2958   46.9417 C.3     1  ZINC000130059363   -0.1800
     30 C30         2.6171    1.4201   45.7453 C.3     1  ZINC000130059363   -0.1600
     31 C31        -1.6081    1.6456   49.2360 C.3     1  ZINC000130059363    0.1100
     32 H32        -2.6807    4.8971   53.1693 H       1  ZINC000130059363    0.0800
     33 H33        -2.4887    3.3907   54.0979 H       1  ZINC000130059363    0.0800
     34 H34        -1.4882    3.6801   52.6544 H       1  ZINC000130059363    0.1000
     35 H35        -6.2852    2.3656   54.6551 H       1  ZINC000130059363    0.1300
     36 H36        -8.2039    1.3260   55.7904 H       1  ZINC000130059363    0.1300
     37 H37        -9.6593   -0.2394   54.5721 H       1  ZINC000130059363    0.1300
     38 H38        -9.2051   -0.7732   52.2139 H       1  ZINC000130059363    0.1300
     39 H39        -7.2950    0.2620   51.0598 H       1  ZINC000130059363    0.1400
     40 H40        -6.2049    1.4731   50.1265 H       1  ZINC000130059363    0.1400
     41 H41        -4.2664    2.5233   48.9899 H       1  ZINC000130059363    0.1400
     42 H42        -0.3029    3.6716   47.7399 H       1  ZINC000130059363    0.0700
     43 H43        -0.0955    4.7275   49.1608 H       1  ZINC000130059363    0.0900
     44 H44         1.9192    3.2847   48.6975 H       1  ZINC000130059363    0.0900
     45 H45         1.2125    3.0072   50.3059 H       1  ZINC000130059363    0.0800
     46 H46         0.3935   -1.1439   49.2743 H       1  ZINC000130059363    0.0800
     47 H47        -1.3206   -1.0772   49.7608 H       1  ZINC000130059363    0.0900
     48 H48        -0.9051   -1.6000   47.2900 H       1  ZINC000130059363    0.1000
     49 H49        -1.9870   -0.2264   47.6082 H       1  ZINC000130059363    0.1000
     50 H50         0.9907    2.9281   46.1323 H       1  ZINC000130059363    0.1100
     51 H51         3.4314    3.2724   46.7327 H       1  ZINC000130059363    0.1100
     52 H52         3.3687    1.7945   47.8343 H       1  ZINC000130059363    0.1000
     53 H53         2.7430    0.3426   45.8507 H       1  ZINC000130059363    0.1000
     54 H54         2.8057    1.8205   44.7491 H       1  ZINC000130059363    0.1000
     55 H55        -2.4486    1.3186   49.8480 H       1  ZINC000130059363    0.1000
     56 H56        -1.8356    1.4774   48.1833 H       1  ZINC000130059363    0.0700
@<TRIPOS>BOND
     1     1     2    1
     2     1    32    1
     3     1    33    1
     4     1    34    1
     5     2    13   ar
     6     2     3   ar
     7     3     4   ar
     8     4     5    1
     9     4    11   ar
    10     5    10   ar
    11     5     6   ar
    12     6     7   ar
    13     6    35    1
    14     7     8   ar
    15     7    36    1
    16     8     9   ar
    17     8    37    1
    18     9    10   ar
    19     9    38    1
    20    10    39    1
    21    11    12   ar
    22    11    40    1
    23    12    13   ar
    24    12    41    1
    25    13    14    1
    26    14    15    2
    27    14    16   am
    28    16    31    1
    29    16    17    1
    30    17    18    1
    31    17    42    1
    32    17    43    1
    33    18    19    1
    34    18    44    1
    35    18    45    1
    36    19    20    1
    37    19    27    1
    38    19    21    1
    39    21    22    1
    40    21    23    1
    41    21    31    1
    42    23    24    1
    43    23    46    1
    44    23    47    1
    45    24    25    1
    46    24    48    1
    47    24    49    1
    48    25    26    2
    49    25    27   am
    50    27    28    1
    51    28    30    1
    52    28    29    1
    53    28    50    1
    54    29    30    1
    55    29    51    1
    56    29    52    1
    57    30    53    1
    58    30    54    1
    59    31    55    1
    60    31    56    1
@<TRIPOS>SUBSTRUCTURE
     1 ZINC000130059363        1 TEMP              0 ****  ****    0 ROOT


##########                                Name:    ZINC000561219098
##########                DOCK_Rotatable_Bonds:                   4
##########                         Heavy_Atoms:                  28
##########                    Molecular_Weight:             423.273
##########                DOCK_Rotatable_Bonds:                   4
##########                       Formal_Charge:          0.00999953
##########                     HBond_Acceptors:                   9
##########                        HBond_Donors:                   1
##########                         Heavy_Atoms:                  28
##########                          Grid_Score:          -27.192892
##########                     Grid_vdw_energy:          -25.959013
##########                      Grid_es_energy:           -1.233879
##########           Internal_energy_repulsive:           16.494631

@<TRIPOS>MOLECULE
ZINC000561219098
 45 48 1 0 0
SMALL
USER_CHARGES


@<TRIPOS>ATOM
      1 C1          2.8067   -0.0376   40.5271 C.3     1  ZINC000561219098    0.0700
      2 N2          3.2814   -0.1267   41.9102 N.pl3   1  ZINC000561219098   -0.4500
      3 C3          4.5782   -0.3069   42.2928 C.2     1  ZINC000561219098   -0.0100
      4 C4          4.6265   -0.3384   43.6379 C.2     1  ZINC000561219098   -0.1700
      5 C5          3.3013   -0.1703   44.1126 C.2     1  ZINC000561219098   -0.1100
      6 C6          2.8704   -0.1385   45.5336 C.2     1  ZINC000561219098    0.1600
      7 N7          3.6603   -0.2616   46.5801 N.2     1  ZINC000561219098   -0.2700
      8 N8          2.8827   -0.1787   47.7417 N.pl3   1  ZINC000561219098   -0.4700
      9 C9          1.5808    0.0006   47.3646 C.2     1  ZINC000561219098    0.0300
     10 C10         0.4230    0.1386   48.2630 C.2     1  ZINC000561219098    0.5900
     11 O11         0.0577   -0.8078   48.9340 O.2     1  ZINC000561219098   -0.5000
     12 N12        -0.2323    1.3136   48.3420 N.am    1  ZINC000561219098   -0.6100
     13 C13         0.1910    2.4725   47.5401 C.3     1  ZINC000561219098    0.0500
     14 C14         0.3284    3.6815   48.4726 C.3     1  ZINC000561219098    0.0500
     15 O15        -0.8780    3.8359   49.2239 O.3     1  ZINC000561219098   -0.3700
     16 C16        -1.1780    2.7330   50.0826 C.3     1  ZINC000561219098    0.1200
     17 H17        -0.3479    2.5705   50.7700 H       1  ZINC000561219098    0.0900
     18 C18        -2.4299    3.0315   50.8666 C.ar    1  ZINC000561219098   -0.0500
     19 C19        -3.6690    2.7553   50.3208 C.ar    1  ZINC000561219098   -0.1000
     20 C20        -4.8192    3.0289   51.0409 C.ar    1  ZINC000561219098    0.1200
     21 F21        -6.0308    2.7587   50.5077 F       1  ZINC000561219098   -0.1200
     22 C22        -4.7272    3.5798   52.3088 C.ar    1  ZINC000561219098   -0.0600
     23 Cl23       -6.1687    3.9230   53.2132 Cl      1  ZINC000561219098   -0.0300
     24 C24        -3.4864    3.8557   52.8538 C.ar    1  ZINC000561219098   -0.0700
     25 C25        -2.3378    3.5768   52.1351 C.ar    1  ZINC000561219098   -0.0300
     26 Cl26       -0.7805    3.9227   52.8198 Cl      1  ZINC000561219098   -0.0400
     27 C27        -1.3960    1.4738   49.2284 C.3     1  ZINC000561219098    0.0900
     28 C28         1.5547    0.0339   45.9872 C.2     1  ZINC000561219098   -0.1700
     29 C29         2.4999   -0.0371   43.0224 C.2     1  ZINC000561219098    0.0300
     30 H30         2.8299    1.0023   40.2012 H       1  ZINC000561219098    0.0800
     31 H31         3.4514   -0.6350   39.8825 H       1  ZINC000561219098    0.0900
     32 H32         1.7853   -0.4140   40.4685 H       1  ZINC000561219098    0.0900
     33 H33         5.4238   -0.4074   41.6285 H       1  ZINC000561219098    0.1700
     34 H34         5.5114   -0.4678   44.2434 H       1  ZINC000561219098    0.1400
     35 H35         3.2099   -0.2386   48.6529 H       1  ZINC000561219098    0.4400
     36 H36         1.1508    2.2616   47.0684 H       1  ZINC000561219098    0.1000
     37 H37        -0.5565    2.6821   46.7749 H       1  ZINC000561219098    0.0900
     38 H38         1.1640    3.5224   49.1541 H       1  ZINC000561219098    0.0700
     39 H39         0.5062    4.5793   47.8807 H       1  ZINC000561219098    0.1200
     40 H40        -3.7400    2.3262   49.3321 H       1  ZINC000561219098    0.1600
     41 H41        -3.4140    4.2854   53.8420 H       1  ZINC000561219098    0.1600
     42 H42        -2.3036    1.5852   48.6352 H       1  ZINC000561219098    0.0900
     43 H43        -1.4850    0.6016   49.8762 H       1  ZINC000561219098    0.1100
     44 H44         0.6786    0.1624   45.3688 H       1  ZINC000561219098    0.1600
     45 H45         1.4296    0.1070   43.0358 H       1  ZINC000561219098    0.1700
@<TRIPOS>BOND
     1     1     2    1
     2     1    30    1
     3     1    31    1
     4     1    32    1
     5     2    29    1
     6     2     3    1
     7     3     4    2
     8     3    33    1
     9     4     5    1
    10     4    34    1
    11     5     6    1
    12     5    29    2
    13     6    28    1
    14     6     7    2
    15     7     8    1
    16     8     9    1
    17     8    35    1
    18     9    10    1
    19     9    28    2
    20    10    11    2
    21    10    12   am
    22    12    27    1
    23    12    13    1
    24    13    14    1
    25    13    36    1
    26    13    37    1
    27    14    15    1
    28    14    38    1
    29    14    39    1
    30    15    16    1
    31    16    17    1
    32    16    18    1
    33    16    27    1
    34    18    25   ar
    35    18    19   ar
    36    19    20   ar
    37    19    40    1
    38    20    21    1
    39    20    22   ar
    40    22    23    1
    41    22    24   ar
    42    24    25   ar
    43    24    41    1
    44    25    26    1
    45    27    42    1
    46    27    43    1
    47    28    44    1
    48    29    45    1
@<TRIPOS>SUBSTRUCTURE
     1 ZINC000561219098        1 TEMP              0 ****  ****    0 ROOT


##########                                Name:    ZINC000836820897
##########                DOCK_Rotatable_Bonds:                   5
##########                         Heavy_Atoms:                  22
##########                    Molecular_Weight:             330.355
##########                DOCK_Rotatable_Bonds:                   5
##########                       Formal_Charge:          -0.0200003
##########                     HBond_Acceptors:                   8
##########                        HBond_Donors:                   1
##########                         Heavy_Atoms:                  22
##########                          Grid_Score:          -27.175087
##########                     Grid_vdw_energy:          -25.947104
##########                      Grid_es_energy:           -1.227983
##########           Internal_energy_repulsive:           11.794219

@<TRIPOS>MOLECULE
ZINC000836820897
 38 40 1 0 0
SMALL
USER_CHARGES


@<TRIPOS>ATOM
      1 O1          0.4300    3.6052   48.5899 O.2     1  ZINC000836820897   -0.5200
      2 C2         -0.3622    2.8101   49.0569 C.2     1  ZINC000836820897    0.5800
      3 C3         -1.4034    3.2710   49.9981 C.ar    1  ZINC000836820897   -0.1600
      4 C4         -1.0424    3.9363   51.1713 C.ar    1  ZINC000836820897   -0.0100
      5 C5         -2.0183    4.3647   52.0459 C.ar    1  ZINC000836820897   -0.1700
      6 C6         -3.3558    4.1359   51.7622 C.ar    1  ZINC000836820897    0.2200
      7 F7         -4.3081    4.5578   52.6227 F       1  ZINC000836820897   -0.1100
      8 C8         -3.7199    3.4760   50.5981 C.ar    1  ZINC000836820897   -0.7200
      9 S9         -5.4223    3.1904   50.2448 S.o2    1  ZINC000836820897    2.7000
     10 O10        -6.1118    4.3794   50.6053 O.2     1  ZINC000836820897   -0.9400
     11 O11        -5.4727    2.6277   48.9410 O.2     1  ZINC000836820897   -0.9400
     12 N12        -5.9475    2.0122   51.2833 N.am    1  ZINC000836820897   -1.0800
     13 C13        -5.8815    2.2290   52.7307 C.3     1  ZINC000836820897    0.0700
     14 C14        -7.0045    3.0443   53.3749 C.3     1  ZINC000836820897   -0.1800
     15 C15        -6.9320    1.5325   53.5979 C.3     1  ZINC000836820897   -0.1900
     16 C16        -2.7527    3.0478   49.7145 C.ar    1  ZINC000836820897    0.0600
     17 N17        -0.2942    1.5090   48.7116 N.am    1  ZINC000836820897   -0.6200
     18 C18         0.6904    0.9162   47.7948 C.3     1  ZINC000836820897    0.0900
     19 C19         0.3984   -0.5976   47.7252 C.3     1  ZINC000836820897   -0.1600
     20 C20        -0.3767   -0.8629   49.0429 C.3     1  ZINC000836820897    0.0800
     21 H21         0.3090   -0.9921   49.8803 H       1  ZINC000836820897    0.1100
     22 F22        -1.2208   -1.9710   48.9137 F       1  ZINC000836820897   -0.1900
     23 C23        -1.1908    0.4436   49.1956 C.3     1  ZINC000836820897    0.0800
     24 H24        -0.0007    4.1147   51.3934 H       1  ZINC000836820897    0.1500
     25 H25        -1.7401    4.8791   52.9539 H       1  ZINC000836820897    0.1600
     26 H26        -6.2988    1.1786   50.9332 H       1  ZINC000836820897    0.4200
     27 H27        -4.8790    2.3377   53.1445 H       1  ZINC000836820897    0.1400
     28 H28        -6.7409    3.6899   54.2126 H       1  ZINC000836820897    0.1100
     29 H29        -7.7924    3.4195   52.7217 H       1  ZINC000836820897    0.1000
     30 H30        -7.6723    0.9129   53.0916 H       1  ZINC000836820897    0.1000
     31 H31        -6.6208    1.1833   54.5825 H       1  ZINC000836820897    0.1000
     32 H32        -3.0373    2.5342   48.8081 H       1  ZINC000836820897    0.1600
     33 H33         0.5884    1.3593   46.8041 H       1  ZINC000836820897    0.0800
     34 H34         1.6983    1.0822   48.1753 H       1  ZINC000836820897    0.0800
     35 H35        -0.2213   -0.8314   46.8596 H       1  ZINC000836820897    0.0900
     36 H36         1.3265   -1.1687   47.7021 H       1  ZINC000836820897    0.1000
     37 H37        -1.4513    0.6083   50.2412 H       1  ZINC000836820897    0.1000
     38 H38        -2.0903    0.4041   48.5814 H       1  ZINC000836820897    0.0900
@<TRIPOS>BOND
     1     1     2    2
     2     2     3    1
     3     2    17   am
     4     3    16   ar
     5     3     4   ar
     6     4     5   ar
     7     4    24    1
     8     5     6   ar
     9     5    25    1
    10     6     7    1
    11     6     8   ar
    12     8     9    1
    13     8    16   ar
    14     9    10    2
    15     9    11    2
    16     9    12   am
    17    12    13    1
    18    12    26    1
    19    13    15    1
    20    13    14    1
    21    13    27    1
    22    14    15    1
    23    14    28    1
    24    14    29    1
    25    15    30    1
    26    15    31    1
    27    16    32    1
    28    17    23    1
    29    17    18    1
    30    18    19    1
    31    18    33    1
    32    18    34    1
    33    19    20    1
    34    19    35    1
    35    19    36    1
    36    20    21    1
    37    20    22    1
    38    20    23    1
    39    23    37    1
    40    23    38    1
@<TRIPOS>SUBSTRUCTURE
     1 ZINC000836820897        1 TEMP              0 ****  ****    0 ROOT


##########                                Name:    ZINC001211202056
##########                DOCK_Rotatable_Bonds:                   4
##########                         Heavy_Atoms:                  23
##########                    Molecular_Weight:             386.181
##########                DOCK_Rotatable_Bonds:                   4
##########                       Formal_Charge:           0.0199999
##########                     HBond_Acceptors:                  11
##########                        HBond_Donors:                   3
##########                         Heavy_Atoms:                  23
##########                          Grid_Score:          -27.005648
##########                     Grid_vdw_energy:          -27.627094
##########                      Grid_es_energy:            0.621447
##########           Internal_energy_repulsive:            6.364922

@<TRIPOS>MOLECULE
ZINC001211202056
 31 32 1 0 0
SMALL
USER_CHARGES


@<TRIPOS>ATOM
      1 N1         -1.8627   -1.6164   45.5002 N.pl3   1  ZINC001211202056   -0.8500
      2 C2         -1.2753   -0.7208   46.3979 C.ar    1  ZINC001211202056    0.2900
      3 C3         -0.9843   -1.1251   47.6939 C.ar    1  ZINC001211202056   -0.2000
      4 C4         -0.4037   -0.2373   48.5791 C.ar    1  ZINC001211202056    0.0400
      5 C5         -0.1125    1.0527   48.1763 C.ar    1  ZINC001211202056   -0.7300
      6 S6          0.6280    2.1812   49.3089 S.o2    1  ZINC001211202056    2.6900
      7 O7          0.6323    1.5347   50.5744 O.2     1  ZINC001211202056   -0.9400
      8 O8          1.8063    2.6660   48.6798 O.2     1  ZINC001211202056   -0.9300
      9 N9         -0.3941    3.4766   49.4491 N.am    1  ZINC001211202056   -1.0500
     10 C10        -1.6999    3.2898   49.9114 C.ar    1  ZINC001211202056    0.1600
     11 C11        -2.6777    2.7633   49.0724 C.ar    1  ZINC001211202056   -0.1200
     12 C12        -3.9579    2.5963   49.5765 C.ar    1  ZINC001211202056   -0.0800
     13 C13        -4.2208    2.9547   50.8847 C.ar    1  ZINC001211202056    0.0400
     14 C14        -5.6108    2.7756   51.4389 C.3     1  ZINC001211202056    0.5300
     15 F15        -5.6876    1.5562   52.1202 F       1  ZINC001211202056   -0.1700
     16 F16        -5.8993    3.8220   52.3216 F       1  ZINC001211202056   -0.1600
     17 F17        -6.5358    2.7826   50.3894 F       1  ZINC001211202056   -0.1700
     18 N18        -3.2724    3.4510   51.6558 N.ar    1  ZINC001211202056   -0.4100
     19 C19        -2.0403    3.6220   51.2183 C.ar    1  ZINC001211202056    0.1600
     20 Cl20       -0.8344    4.2793   52.2802 Cl      1  ZINC001211202056    0.0000
     21 C21        -0.4008    1.4596   46.8860 C.ar    1  ZINC001211202056    0.0400
     22 C22        -0.9758    0.5752   45.9937 C.ar    1  ZINC001211202056   -0.1400
     23 Cl23       -1.3374    1.0862   44.3745 Cl      1  ZINC001211202056   -0.0500
     24 H24        -2.0619   -1.3340   44.5938 H       1  ZINC001211202056    0.4100
     25 H25        -2.0675   -2.5216   45.7822 H       1  ZINC001211202056    0.4100
     26 H26        -1.2120   -2.1323   48.0099 H       1  ZINC001211202056    0.1400
     27 H27        -0.1773   -0.5514   49.5873 H       1  ZINC001211202056    0.1500
     28 H28        -0.0866    4.3650   49.2103 H       1  ZINC001211202056    0.4400
     29 H29        -2.4446    2.4918   48.0533 H       1  ZINC001211202056    0.2000
     30 H30        -4.7414    2.1908   48.9535 H       1  ZINC001211202056    0.1700
     31 H31        -0.1720    2.4681   46.5746 H       1  ZINC001211202056    0.1500
@<TRIPOS>BOND
     1     1     2    1
     2     1    24    1
     3     1    25    1
     4     2    22   ar
     5     2     3   ar
     6     3     4   ar
     7     3    26    1
     8     4     5   ar
     9     4    27    1
    10     5     6    1
    11     5    21   ar
    12     6     7    2
    13     6     8    2
    14     6     9   am
    15     9    10    1
    16     9    28    1
    17    10    19   ar
    18    10    11   ar
    19    11    12   ar
    20    11    29    1
    21    12    13   ar
    22    12    30    1
    23    13    14    1
    24    13    18   ar
    25    14    15    1
    26    14    16    1
    27    14    17    1
    28    18    19   ar
    29    19    20    1
    30    21    22   ar
    31    21    31    1
    32    22    23    1
@<TRIPOS>SUBSTRUCTURE
     1 ZINC001211202056        1 TEMP              0 ****  ****    0 ROOT


##########                                Name:    ZINC001193456967
##########                DOCK_Rotatable_Bonds:                   3
##########                         Heavy_Atoms:                  27
##########                    Molecular_Weight:             392.451
##########                DOCK_Rotatable_Bonds:                   3
##########                       Formal_Charge:           0.0300002
##########                     HBond_Acceptors:                   8
##########                        HBond_Donors:                   0
##########                         Heavy_Atoms:                  27
##########                          Grid_Score:          -27.000221
##########                     Grid_vdw_energy:          -28.088148
##########                      Grid_es_energy:            1.087927
##########           Internal_energy_repulsive:           36.434437

@<TRIPOS>MOLECULE
ZINC001193456967
 48 50 1 0 0
SMALL
USER_CHARGES


@<TRIPOS>ATOM
      1 C1         -4.7349    4.4517   52.2603 C.3     1  ZINC001193456967   -0.1400
      2 C2         -3.6931    3.6398   51.5347 C.ar    1  ZINC001193456967    0.0300
      3 C3         -2.3534    3.9489   51.6769 C.ar    1  ZINC001193456967   -0.1400
      4 C4         -1.3977    3.2041   51.0112 C.ar    1  ZINC001193456967    0.0300
      5 C5         -1.7818    2.1502   50.2038 C.ar    1  ZINC001193456967   -0.6900
      6 S6         -0.5638    1.2012   49.3549 S.o2    1  ZINC001193456967    2.7100
      7 O7          0.6964    1.6246   49.8566 O.2     1  ZINC001193456967   -0.9300
      8 O8         -1.0043   -0.1491   49.3995 O.2     1  ZINC001193456967   -0.9400
      9 N9         -0.6100    1.6556   47.7631 N.am    1  ZINC001193456967   -1.0000
     10 C10        -1.7785    1.5438   46.8711 C.3     1  ZINC001193456967    0.1100
     11 C11        -1.1828    1.4894   45.4422 C.3     1  ZINC001193456967   -0.1200
     12 C12         0.0096    2.4746   45.5641 C.3     1  ZINC001193456967   -0.0500
     13 H13        -0.3258    3.5038   45.4356 H       1  ZINC001193456967    0.1000
     14 C14         1.0843    2.1374   44.5629 C.ar    1  ZINC001193456967   -0.0800
     15 C15         1.3658    0.8158   44.2705 C.ar    1  ZINC001193456967   -0.0800
     16 C16         2.3511    0.5054   43.3527 C.ar    1  ZINC001193456967   -0.1500
     17 C17         3.0563    1.5185   42.7255 C.ar    1  ZINC001193456967    0.1000
     18 F18         4.0195    1.2161   41.8277 F       1  ZINC001193456967   -0.1400
     19 C19         2.7732    2.8417   43.0188 C.ar    1  ZINC001193456967   -0.1500
     20 C20         1.7841    3.1498   43.9334 C.ar    1  ZINC001193456967   -0.0800
     21 C21         0.5056    2.2435   47.0071 C.3     1  ZINC001193456967    0.1900
     22 C22         0.9233    3.5754   47.6334 C.3     1  ZINC001193456967   -0.1800
     23 C23         1.6892    1.2739   47.0014 C.3     1  ZINC001193456967   -0.1800
     24 C24        -3.1217    1.8401   50.0625 C.ar    1  ZINC001193456967    0.0400
     25 C25        -4.0769    2.5823   50.7311 C.ar    1  ZINC001193456967   -0.0600
     26 N26        -5.5115    2.2505   50.5799 N.pl3   1  ZINC001193456967    0.0200
     27 O27        -6.2624    2.3450   51.5342 O.2     1  ZINC001193456967   -0.1400
     28 O28        -5.9411    1.8828   49.5010 O.2     1  ZINC001193456967   -0.1500
     29 H29        -4.9932    3.9576   53.1969 H       1  ZINC001193456967    0.1100
     30 H30        -4.3394    5.4454   52.4708 H       1  ZINC001193456967    0.0900
     31 H31        -5.6255    4.5394   51.6381 H       1  ZINC001193456967    0.0800
     32 H32        -2.0533    4.7724   52.3079 H       1  ZINC001193456967    0.1600
     33 H33        -0.3509    3.4460   51.1219 H       1  ZINC001193456967    0.1600
     34 H34        -2.3335    0.6306   47.0858 H       1  ZINC001193456967    0.0900
     35 H35        -2.4238    2.4154   46.9802 H       1  ZINC001193456967    0.0700
     36 H36        -0.8362    0.4844   45.2013 H       1  ZINC001193456967    0.0900
     37 H37        -1.9049    1.8392   44.7043 H       1  ZINC001193456967    0.0900
     38 H38         0.8156    0.0257   44.7599 H       1  ZINC001193456967    0.1400
     39 H39         2.5713   -0.5272   43.1250 H       1  ZINC001193456967    0.1400
     40 H40         3.3229    3.6327   42.5303 H       1  ZINC001193456967    0.1400
     41 H41         1.5629    4.1819   44.1621 H       1  ZINC001193456967    0.1300
     42 H42         0.0691    4.2524   47.6508 H       1  ZINC001193456967    0.0700
     43 H43         1.2722    3.4044   48.6518 H       1  ZINC001193456967    0.0600
     44 H44         1.7260    4.0182   47.0438 H       1  ZINC001193456967    0.0800
     45 H45         2.4567    1.6415   46.3202 H       1  ZINC001193456967    0.0800
     46 H46         2.1021    1.1988   48.0073 H       1  ZINC001193456967    0.0900
     47 H47         1.3520    0.2909   46.6726 H       1  ZINC001193456967    0.0700
     48 H48        -3.4218    1.0163   49.4319 H       1  ZINC001193456967    0.1600
@<TRIPOS>BOND
     1     1     2    1
     2     1    29    1
     3     1    30    1
     4     1    31    1
     5     2    25   ar
     6     2     3   ar
     7     3     4   ar
     8     3    32    1
     9     4     5   ar
    10     4    33    1
    11     5     6    1
    12     5    24   ar
    13     6     7    2
    14     6     8    2
    15     6     9   am
    16     9    21    1
    17     9    10    1
    18    10    11    1
    19    10    34    1
    20    10    35    1
    21    11    12    1
    22    11    36    1
    23    11    37    1
    24    12    13    1
    25    12    14    1
    26    12    21    1
    27    14    20   ar
    28    14    15   ar
    29    15    16   ar
    30    15    38    1
    31    16    17   ar
    32    16    39    1
    33    17    18    1
    34    17    19   ar
    35    19    20   ar
    36    19    40    1
    37    20    41    1
    38    21    22    1
    39    21    23    1
    40    22    42    1
    41    22    43    1
    42    22    44    1
    43    23    45    1
    44    23    46    1
    45    23    47    1
    46    24    25   ar
    47    24    48    1
    48    25    26    1
    49    26    27    2
    50    26    28    2
@<TRIPOS>SUBSTRUCTURE
     1 ZINC001193456967        1 TEMP              0 ****  ****    0 ROOT


##########                                Name:    ZINC001076281847
##########                DOCK_Rotatable_Bonds:                   4
##########                         Heavy_Atoms:                  24
##########                    Molecular_Weight:             362.883
##########                DOCK_Rotatable_Bonds:                   4
##########                       Formal_Charge:         -0.00999959
##########                     HBond_Acceptors:                   7
##########                        HBond_Donors:                   0
##########                         Heavy_Atoms:                  24
##########                          Grid_Score:          -26.993151
##########                     Grid_vdw_energy:          -27.216923
##########                      Grid_es_energy:            0.223772
##########           Internal_energy_repulsive:           14.511480

@<TRIPOS>MOLECULE
ZINC001076281847
 43 46 1 0 0
SMALL
USER_CHARGES


@<TRIPOS>ATOM
      1 C1        -10.3884   -0.6158   56.6210 C.3     1  ZINC001076281847   -0.0900
      2 C2         -9.8235   -0.5640   55.2248 C.2     1  ZINC001076281847    0.1400
      3 N3        -10.3089   -1.2973   54.2664 N.2     1  ZINC001076281847   -0.4600
      4 S4         -9.4115   -0.9523   52.8691 S.3     1  ZINC001076281847    0.2500
      5 C5         -8.3729    0.2000   53.6132 C.2     1  ZINC001076281847   -0.2100
      6 C6         -7.2567    0.9759   52.9626 C.3     1  ZINC001076281847    0.1200
      7 N7         -7.4273    2.4077   53.2434 N.3     1  ZINC001076281847   -0.5000
      8 C8         -7.9614    3.1153   52.0692 C.3     1  ZINC001076281847    0.0300
      9 C9         -7.2389    4.4741   52.0018 C.3     1  ZINC001076281847   -0.1000
     10 H10        -7.8027    5.2877   52.4583 H       1  ZINC001076281847    0.1200
     11 C11        -6.8508    4.7449   50.5244 C.3     1  ZINC001076281847   -0.1300
     12 C12        -5.6673    3.7665   50.3242 C.3     1  ZINC001076281847    0.1000
     13 N13        -4.9393    3.7885   51.6057 N.am    1  ZINC001076281847   -0.6000
     14 C14        -3.6361    3.4886   51.7728 C.2     1  ZINC001076281847    0.5700
     15 O15        -3.1378    3.5402   52.8799 O.2     1  ZINC001076281847   -0.4900
     16 C16        -2.8113    3.0962   50.6073 C.ar    1  ZINC001076281847   -0.0800
     17 C17        -3.2943    2.1913   49.6571 C.ar    1  ZINC001076281847   -0.1800
     18 C18        -2.4915    1.8534   48.5849 C.ar    1  ZINC001076281847    0.1000
     19 N19        -1.2867    2.3709   48.4508 N.ar    1  ZINC001076281847   -0.4500
     20 C20        -0.7918    3.2269   49.3221 C.ar    1  ZINC001076281847    0.1100
     21 C21        -1.5287    3.6253   50.4227 C.ar    1  ZINC001076281847   -0.0500
     22 Cl22       -0.8680    4.7540   51.5644 Cl      1  ZINC001076281847   -0.0100
     23 C23        -5.8756    4.1967   52.6910 C.3     1  ZINC001076281847    0.1000
     24 H24        -5.5035    5.0699   53.2272 H       1  ZINC001076281847    0.1100
     25 C25        -6.1518    3.0226   53.6402 C.3     1  ZINC001076281847    0.0200
     26 C26        -8.7722    0.2666   54.9025 C.2     1  ZINC001076281847   -0.1800
     27 H27       -11.1311    0.1727   56.7419 H       1  ZINC001076281847    0.0700
     28 H28       -10.8575   -1.5855   56.7874 H       1  ZINC001076281847    0.0800
     29 H29        -9.5851   -0.4721   57.3436 H       1  ZINC001076281847    0.0900
     30 H30        -6.2997    0.6389   53.3611 H       1  ZINC001076281847    0.1000
     31 H31        -7.2798    0.8116   51.8854 H       1  ZINC001076281847    0.1000
     32 H32        -7.7605    2.5410   51.1648 H       1  ZINC001076281847    0.0600
     33 H33        -9.0345    3.2690   52.1830 H       1  ZINC001076281847    0.0900
     34 H34        -7.6752    4.5024   49.8538 H       1  ZINC001076281847    0.0900
     35 H35        -6.5304    5.7778   50.3883 H       1  ZINC001076281847    0.0800
     36 H36        -6.0364    2.7625   50.1146 H       1  ZINC001076281847    0.0800
     37 H37        -5.0227    4.1112   49.5157 H       1  ZINC001076281847    0.0800
     38 H38        -4.2802    1.7626   49.7600 H       1  ZINC001076281847    0.1800
     39 H39        -2.8561    1.1549   47.8463 H       1  ZINC001076281847    0.1700
     40 H40         0.2005    3.6259   49.1724 H       1  ZINC001076281847    0.1700
     41 H41        -6.2024    3.3832   54.6676 H       1  ZINC001076281847    0.1000
     42 H42        -5.3587    2.2804   53.5489 H       1  ZINC001076281847    0.0700
     43 H43        -8.2998    0.9152   55.6255 H       1  ZINC001076281847    0.1400
@<TRIPOS>BOND
     1     1     2    1
     2     1    27    1
     3     1    28    1
     4     1    29    1
     5     2    26    1
     6     2     3    2
     7     3     4    1
     8     4     5    1
     9     5     6    1
    10     5    26    2
    11     6     7    1
    12     6    30    1
    13     6    31    1
    14     7    25    1
    15     7     8    1
    16     8     9    1
    17     8    32    1
    18     8    33    1
    19     9    10    1
    20     9    23    1
    21     9    11    1
    22    11    12    1
    23    11    34    1
    24    11    35    1
    25    12    13    1
    26    12    36    1
    27    12    37    1
    28    13    14   am
    29    13    23    1
    30    14    15    2
    31    14    16    1
    32    16    21   ar
    33    16    17   ar
    34    17    18   ar
    35    17    38    1
    36    18    19   ar
    37    18    39    1
    38    19    20   ar
    39    20    21   ar
    40    20    40    1
    41    21    22    1
    42    23    24    1
    43    23    25    1
    44    25    41    1
    45    25    42    1
    46    26    43    1
@<TRIPOS>SUBSTRUCTURE
     1 ZINC001076281847        1 TEMP              0 ****  ****    0 ROOT


##########                                Name:    ZINC000863216249
##########                DOCK_Rotatable_Bonds:                   5
##########                         Heavy_Atoms:                  23
##########                    Molecular_Weight:             396.351
##########                DOCK_Rotatable_Bonds:                   5
##########                       Formal_Charge:         -0.00999944
##########                     HBond_Acceptors:                   5
##########                        HBond_Donors:                   1
##########                         Heavy_Atoms:                  23
##########                          Grid_Score:          -26.960003
##########                     Grid_vdw_energy:          -26.272890
##########                      Grid_es_energy:           -0.687114
##########           Internal_energy_repulsive:           26.795578

@<TRIPOS>MOLECULE
ZINC000863216249
 45 48 1 0 0
SMALL
USER_CHARGES


@<TRIPOS>ATOM
      1 S1         -4.3260    2.6051   49.2794 S.2     1  ZINC000863216249   -0.5900
      2 C2         -3.3255    3.1443   50.5596 C.2     1  ZINC000863216249    0.5600
      3 N3         -3.8714    3.7524   51.6313 N.am    1  ZINC000863216249   -0.6800
      4 C4         -5.3205    3.9574   51.6980 C.3     1  ZINC000863216249    0.1200
      5 C5         -5.8742    3.2797   52.9529 C.3     1  ZINC000863216249    0.0400
      6 N6         -6.7168    2.1412   52.5632 N.3     1  ZINC000863216249   -0.5300
      7 C7         -7.6678    1.7996   53.6310 C.3     1  ZINC000863216249    0.0000
      8 C8         -8.5633    0.6502   53.1611 C.3     1  ZINC000863216249    0.0600
      9 O9         -7.7460   -0.4624   52.7877 O.3     1  ZINC000863216249   -0.3800
     10 C10        -6.8085   -0.1652   51.7493 C.3     1  ZINC000863216249    0.0600
     11 C11        -5.8952    0.9759   52.2050 C.3     1  ZINC000863216249    0.0200
     12 N12        -1.9923    2.9557   50.4983 N.am    1  ZINC000863216249   -0.5100
     13 C13        -1.2843    2.3088   49.3879 C.3     1  ZINC000863216249    0.1200
     14 C14         0.1932    2.3399   49.7911 C.3     1  ZINC000863216249   -0.1100
     15 C15         1.1375    1.1934   49.4513 C.3     1  ZINC000863216249   -0.1500
     16 C16         1.2970    2.5515   48.7621 C.3     1  ZINC000863216249   -0.1500
     17 C17         0.2222    3.0190   51.1359 C.ar    1  ZINC000863216249   -0.0700
     18 C18         1.2702    3.3250   51.9824 C.ar    1  ZINC000863216249   -0.0800
     19 C19         1.0300    3.9631   53.1849 C.ar    1  ZINC000863216249   -0.1000
     20 C20        -0.2648    4.2959   53.5407 C.ar    1  ZINC000863216249   -0.0700
     21 Br21       -0.5959    5.1695   55.1848 Br      1  ZINC000863216249   -0.0400
     22 C22        -1.3150    3.9926   52.6990 C.ar    1  ZINC000863216249   -0.0900
     23 C23        -1.0800    3.3533   51.4812 C.ar    1  ZINC000863216249    0.1400
     24 H24        -3.3049    4.0544   52.3585 H       1  ZINC000863216249    0.4000
     25 H25        -5.5350    5.0254   51.7371 H       1  ZINC000863216249    0.0900
     26 H26        -5.7896    3.5248   50.8143 H       1  ZINC000863216249    0.1000
     27 H27        -5.0479    2.9259   53.5694 H       1  ZINC000863216249    0.0900
     28 H28        -6.4699    3.9954   53.5195 H       1  ZINC000863216249    0.0400
     29 H29        -7.1198    1.4931   54.5220 H       1  ZINC000863216249    0.0500
     30 H30        -8.2829    2.6691   53.8624 H       1  ZINC000863216249    0.1000
     31 H31        -9.2318    0.3556   53.9700 H       1  ZINC000863216249    0.1000
     32 H32        -9.1511    0.9745   52.3023 H       1  ZINC000863216249    0.0600
     33 H33        -6.2078   -1.0496   51.5373 H       1  ZINC000863216249    0.1000
     34 H34        -7.3452    0.1354   50.8496 H       1  ZINC000863216249    0.0600
     35 H35        -5.2163    1.2441   51.3955 H       1  ZINC000863216249    0.0900
     36 H36        -5.3188    0.6562   53.0732 H       1  ZINC000863216249    0.0500
     37 H37        -1.6235    1.2797   49.2701 H       1  ZINC000863216249    0.0900
     38 H38        -1.4370    2.8672   48.4643 H       1  ZINC000863216249    0.0900
     39 H39         1.8826    0.9167   50.1972 H       1  ZINC000863216249    0.1100
     40 H40         0.7382    0.3712   48.8574 H       1  ZINC000863216249    0.1100
     41 H41         1.0024    2.6225   47.7150 H       1  ZINC000863216249    0.1100
     42 H42         2.1469    3.1680   49.0548 H       1  ZINC000863216249    0.1100
     43 H43         2.2806    3.0643   51.7039 H       1  ZINC000863216249    0.1400
     44 H44         1.8510    4.2009   53.8451 H       1  ZINC000863216249    0.1400
     45 H45        -2.3238    4.2548   52.9825 H       1  ZINC000863216249    0.1900
@<TRIPOS>BOND
     1     1     2    2
     2     2     3   am
     3     2    12   am
     4     3     4    1
     5     3    24    1
     6     4     5    1
     7     4    25    1
     8     4    26    1
     9     5     6    1
    10     5    27    1
    11     5    28    1
    12     6    11    1
    13     6     7    1
    14     7     8    1
    15     7    29    1
    16     7    30    1
    17     8     9    1
    18     8    31    1
    19     8    32    1
    20     9    10    1
    21    10    11    1
    22    10    33    1
    23    10    34    1
    24    11    35    1
    25    11    36    1
    26    12    23    1
    27    12    13    1
    28    13    14    1
    29    13    37    1
    30    13    38    1
    31    14    16    1
    32    14    15    1
    33    14    17    1
    34    15    16    1
    35    15    39    1
    36    15    40    1
    37    16    41    1
    38    16    42    1
    39    17    23   ar
    40    17    18   ar
    41    18    19   ar
    42    18    43    1
    43    19    20   ar
    44    19    44    1
    45    20    21    1
    46    20    22   ar
    47    22    23   ar
    48    22    45    1
@<TRIPOS>SUBSTRUCTURE
     1 ZINC000863216249        1 TEMP              0 ****  ****    0 ROOT


##########                                Name:    ZINC000176150038
##########                DOCK_Rotatable_Bonds:                   4
##########                         Heavy_Atoms:                  23
##########                    Molecular_Weight:             333.712
##########                DOCK_Rotatable_Bonds:                   4
##########                       Formal_Charge:        -2.23517e-07
##########                     HBond_Acceptors:                  10
##########                        HBond_Donors:                   1
##########                         Heavy_Atoms:                  23
##########                          Grid_Score:          -26.840595
##########                     Grid_vdw_energy:          -26.427500
##########                      Grid_es_energy:           -0.413096
##########           Internal_energy_repulsive:           14.585673

@<TRIPOS>MOLECULE
ZINC000176150038
 32 34 1 0 0
SMALL
USER_CHARGES


@<TRIPOS>ATOM
      1 C1         -0.8986   -0.7039   48.7827 C.3     1  ZINC000176150038   -0.0900
      2 C2         -1.4272    0.1638   47.6697 C.2     1  ZINC000176150038    0.2600
      3 N3         -1.4325   -0.1281   46.3952 N.2     1  ZINC000176150038   -0.3300
      4 N4         -1.9547    0.8273   45.7142 N.2     1  ZINC000176150038   -0.0300
      5 N5         -2.3159    1.7864   46.4968 N.2     1  ZINC000176150038   -0.0700
      6 N6         -1.9885    1.3848   47.8039 N.pl3   1  ZINC000176150038   -0.3300
      7 C7         -2.1937    2.1021   48.9922 C.ar    1  ZINC000176150038    0.1400
      8 C8         -1.1697    2.8751   49.5221 C.ar    1  ZINC000176150038   -0.1000
      9 C9         -1.3700    3.5828   50.6923 C.ar    1  ZINC000176150038   -0.1100
     10 C10        -2.5910    3.5231   51.3389 C.ar    1  ZINC000176150038    0.1000
     11 F11        -2.7842    4.2162   52.4824 F       1  ZINC000176150038   -0.1200
     12 C12        -3.6207    2.7498   50.8118 C.ar    1  ZINC000176150038    0.1300
     13 N13        -4.8565    2.6889   51.4655 N.am    1  ZINC000176150038   -0.6500
     14 C14        -5.8312    3.5633   51.1466 C.2     1  ZINC000176150038    0.5700
     15 O15        -5.6370    4.4044   50.2915 O.2     1  ZINC000176150038   -0.4800
     16 C16        -7.1411    3.4989   51.8395 C.ar    1  ZINC000176150038    0.1400
     17 N17        -7.3424    2.6293   52.8272 N.ar    1  ZINC000176150038   -0.4800
     18 C18        -8.5025    2.5694   53.4445 C.ar    1  ZINC000176150038    0.3000
     19 N19        -9.5084    3.3577   53.1185 N.ar    1  ZINC000176150038   -0.4800
     20 C20        -9.3905    4.2484   52.1491 C.ar    1  ZINC000176150038    0.1700
     21 C21        -8.1827    4.3535   51.4707 C.ar    1  ZINC000176150038   -0.1000
     22 Cl22       -7.9773    5.5079   50.1903 Cl      1  ZINC000176150038    0.0100
     23 C23        -3.4221    2.0435   49.6347 C.ar    1  ZINC000176150038   -0.0800
     24 H24        -1.6965   -1.3494   49.1502 H       1  ZINC000176150038    0.1100
     25 H25        -0.0790   -1.3168   48.4077 H       1  ZINC000176150038    0.1100
     26 H26        -0.5383   -0.0730   49.5953 H       1  ZINC000176150038    0.0900
     27 H27        -0.2150    2.9232   49.0196 H       1  ZINC000176150038    0.1500
     28 H28        -0.5715    4.1831   51.1027 H       1  ZINC000176150038    0.1600
     29 H29        -5.0115    2.0174   52.1481 H       1  ZINC000176150038    0.4300
     30 H30        -8.6353    1.8531   54.2417 H       1  ZINC000176150038    0.2200
     31 H31       -10.2208    4.8888   51.8905 H       1  ZINC000176150038    0.1900
     32 H32        -4.2196    1.4425   49.2233 H       1  ZINC000176150038    0.1700
@<TRIPOS>BOND
     1     1     2    1
     2     1    24    1
     3     1    25    1
     4     1    26    1
     5     2     6    1
     6     2     3    2
     7     3     4    1
     8     4     5    2
     9     5     6    1
    10     6     7    1
    11     7    23   ar
    12     7     8   ar
    13     8     9   ar
    14     8    27    1
    15     9    10   ar
    16     9    28    1
    17    10    11    1
    18    10    12   ar
    19    12    13    1
    20    12    23   ar
    21    13    14   am
    22    13    29    1
    23    14    15    2
    24    14    16    1
    25    16    21   ar
    26    16    17   ar
    27    17    18   ar
    28    18    19   ar
    29    18    30    1
    30    19    20   ar
    31    20    21   ar
    32    20    31    1
    33    21    22    1
    34    23    32    1
@<TRIPOS>SUBSTRUCTURE
     1 ZINC000176150038        1 TEMP              0 ****  ****    0 ROOT


##########                                Name:    ZINC000864477301
##########                DOCK_Rotatable_Bonds:                   6
##########                         Heavy_Atoms:                  26
##########                    Molecular_Weight:             393.891
##########                DOCK_Rotatable_Bonds:                   6
##########                       Formal_Charge:         -0.00999978
##########                     HBond_Acceptors:                   7
##########                        HBond_Donors:                   1
##########                         Heavy_Atoms:                  26
##########                          Grid_Score:          -26.831863
##########                     Grid_vdw_energy:          -24.859022
##########                      Grid_es_energy:           -1.972841
##########           Internal_energy_repulsive:           13.525697

@<TRIPOS>MOLECULE
ZINC000864477301
 46 47 1 0 0
SMALL
USER_CHARGES


@<TRIPOS>ATOM
      1 C1        -11.0648   -1.1903   54.8888 C.3     1  ZINC000864477301   -0.1500
      2 C2        -10.5283    0.1199   55.4687 C.3     1  ZINC000864477301    0.0600
      3 O3        -10.2850    1.0623   54.3913 O.3     1  ZINC000864477301   -0.3500
      4 C4         -9.1218    0.9404   53.7229 C.2     1  ZINC000864477301    0.5100
      5 O5         -8.3329    0.0695   54.0307 O.2     1  ZINC000864477301   -0.5000
      6 C6         -8.8055    1.8657   52.6158 C.ar    1  ZINC000864477301   -0.1400
      7 C7         -9.6636    2.9271   52.3222 C.ar    1  ZINC000864477301   -0.0300
      8 C8         -9.3621    3.7875   51.2866 C.ar    1  ZINC000864477301   -0.1500
      9 C9         -8.2128    3.6002   50.5397 C.ar    1  ZINC000864477301   -0.0100
     10 C10        -7.3578    2.5502   50.8254 C.ar    1  ZINC000864477301   -0.4900
     11 S11        -5.8967    2.3209   49.8676 S.o     1  ZINC000864477301    1.3800
     12 O12        -5.6171    0.9380   50.0371 O.2     1  ZINC000864477301   -0.8100
     13 C13        -4.6625    3.3017   50.7651 C.3     1  ZINC000864477301   -0.4600
     14 H14        -4.9361    4.3559   50.7234 H       1  ZINC000864477301    0.1400
     15 C15        -4.6113    2.8452   52.2244 C.3     1  ZINC000864477301   -0.1400
     16 C16        -3.3093    3.1085   50.1305 C.2     1  ZINC000864477301    0.5500
     17 O17        -3.2171    2.9702   48.9291 O.2     1  ZINC000864477301   -0.5100
     18 N18        -2.2017    3.0893   50.8980 N.am    1  ZINC000864477301   -0.6800
     19 C19        -0.9447    2.9098   50.3086 C.ar    1  ZINC000864477301    0.1400
     20 C20        -0.0160    3.9413   50.3233 C.ar    1  ZINC000864477301   -0.0600
     21 C21        -0.3597    5.2564   50.9739 C.3     1  ZINC000864477301   -0.1100
     22 C22         1.2240    3.7611   49.7412 C.ar    1  ZINC000864477301   -0.1100
     23 C23         1.5409    2.5551   49.1443 C.ar    1  ZINC000864477301   -0.1000
     24 C24         0.6182    1.5249   49.1272 C.ar    1  ZINC000864477301   -0.1100
     25 C25        -0.6217    1.6964   49.7126 C.ar    1  ZINC000864477301   -0.0200
     26 Cl26       -1.7793    0.4030   49.6914 Cl      1  ZINC000864477301   -0.0600
     27 C27        -7.6438    1.6862   51.8617 C.ar    1  ZINC000864477301    0.0100
     28 H28       -11.9967   -0.9977   54.3572 H       1  ZINC000864477301    0.0700
     29 H29       -10.3325   -1.6089   54.1984 H       1  ZINC000864477301    0.0700
     30 H30       -11.2474   -1.8978   55.6976 H       1  ZINC000864477301    0.0800
     31 H31       -11.2605    0.5384   56.1591 H       1  ZINC000864477301    0.0700
     32 H32        -9.5964   -0.0727   56.0003 H       1  ZINC000864477301    0.0700
     33 H33       -10.5615    3.0740   52.9040 H       1  ZINC000864477301    0.1400
     34 H34       -10.0251    4.6090   51.0584 H       1  ZINC000864477301    0.1400
     35 H35        -7.9820    4.2762   49.7298 H       1  ZINC000864477301    0.1500
     36 H36        -3.8696    3.4346   52.7637 H       1  ZINC000864477301    0.0700
     37 H37        -5.5901    2.9850   52.6834 H       1  ZINC000864477301    0.0700
     38 H38        -4.3377    1.7910   52.2661 H       1  ZINC000864477301    0.0700
     39 H39        -2.2754    3.1997   51.8589 H       1  ZINC000864477301    0.4100
     40 H40        -0.0726    5.2278   52.0251 H       1  ZINC000864477301    0.0800
     41 H41         0.1776    6.0614   50.4724 H       1  ZINC000864477301    0.0700
     42 H42        -1.4326    5.4315   50.8950 H       1  ZINC000864477301    0.0700
     43 H43         1.9466    4.5637   49.7521 H       1  ZINC000864477301    0.1400
     44 H44         2.5109    2.4172   48.6901 H       1  ZINC000864477301    0.1400
     45 H45         0.8687    0.5840   48.6597 H       1  ZINC000864477301    0.1400
     46 H46        -6.9756    0.8673   52.0839 H       1  ZINC000864477301    0.1400
@<TRIPOS>BOND
     1     1     2    1
     2     1    28    1
     3     1    29    1
     4     1    30    1
     5     2     3    1
     6     2    31    1
     7     2    32    1
     8     3     4    1
     9     4     5    2
    10     4     6    1
    11     6    27   ar
    12     6     7   ar
    13     7     8   ar
    14     7    33    1
    15     8     9   ar
    16     8    34    1
    17     9    10   ar
    18     9    35    1
    19    10    11    1
    20    10    27   ar
    21    11    12    2
    22    11    13    1
    23    13    14    1
    24    13    15    1
    25    13    16    1
    26    15    36    1
    27    15    37    1
    28    15    38    1
    29    16    17    2
    30    16    18   am
    31    18    19    1
    32    18    39    1
    33    19    25   ar
    34    19    20   ar
    35    20    21    1
    36    20    22   ar
    37    21    40    1
    38    21    41    1
    39    21    42    1
    40    22    23   ar
    41    22    43    1
    42    23    24   ar
    43    23    44    1
    44    24    25   ar
    45    24    45    1
    46    25    26    1
    47    27    46    1
@<TRIPOS>SUBSTRUCTURE
     1 ZINC000864477301        1 TEMP              0 ****  ****    0 ROOT


##########                                Name:    ZINC000010935976
##########                DOCK_Rotatable_Bonds:                   3
##########                         Heavy_Atoms:                  26
##########                    Molecular_Weight:             391.558
##########                DOCK_Rotatable_Bonds:                   3
##########                       Formal_Charge:         -0.00999979
##########                     HBond_Acceptors:                   7
##########                        HBond_Donors:                   1
##########                         Heavy_Atoms:                  26
##########                          Grid_Score:          -26.824238
##########                     Grid_vdw_energy:          -27.280397
##########                      Grid_es_energy:            0.456160
##########           Internal_energy_repulsive:          126.794037

@<TRIPOS>MOLECULE
ZINC000010935976
 51 54 1 0 0
SMALL
USER_CHARGES


@<TRIPOS>ATOM
      1 C1         -7.2647    1.7763   53.2890 C.3     1  ZINC000010935976   -0.0800
      2 C2         -7.7787    1.2457   54.6025 C.2     1  ZINC000010935976   -0.2100
      3 C3         -8.6159    0.2336   54.7196 C.2     1  ZINC000010935976   -0.0400
      4 C4         -9.1573   -0.5141   53.5283 C.3     1  ZINC000010935976   -0.1000
      5 C5         -8.9754   -0.1048   56.0841 C.2     1  ZINC000010935976   -0.2300
      6 C6         -8.3500    0.7253   57.0118 C.2     1  ZINC000010935976    0.0900
      7 N7         -8.5769    0.5450   58.3281 N.2     1  ZINC000010935976   -0.4900
      8 C8         -9.3768   -0.3982   58.7644 C.2     1  ZINC000010935976    0.3400
      9 S9         -9.6289   -0.5777   60.4990 S.3     1  ZINC000010935976    0.0500
     10 C10        -8.5380    0.7300   61.1122 C.3     1  ZINC000010935976   -0.1000
     11 H11        -7.5948    0.7059   60.5664 H       1  ZINC000010935976    0.1400
     12 C12        -8.2737    0.5212   62.6053 C.3     1  ZINC000010935976   -0.1000
     13 C13        -9.5008   -0.0478   63.2941 C.3     1  ZINC000010935976   -0.1300
     14 C14       -10.6793    0.9079   63.3347 C.3     1  ZINC000010935976   -0.1400
     15 C15       -11.2259    1.1594   61.9281 C.3     1  ZINC000010935976    0.0700
     16 N16       -10.4656    2.2619   61.3174 N.am    1  ZINC000010935976   -0.7200
     17 C17        -9.2020    2.0775   60.9215 C.2     1  ZINC000010935976    0.5400
     18 O18        -8.5876    2.9923   60.4150 O.2     1  ZINC000010935976   -0.5200
     19 N19       -10.0191   -1.2439   57.9069 N.am    1  ZINC000010935976   -0.5100
     20 C20       -10.9049   -2.2842   58.4354 C.3     1  ZINC000010935976    0.1200
     21 C21       -12.3786   -1.8911   58.2040 C.3     1  ZINC000010935976   -0.1300
     22 C22       -12.7621   -2.6127   56.8883 C.3     1  ZINC000010935976   -0.1300
     23 C23       -12.0218   -3.9675   57.0131 C.3     1  ZINC000010935976   -0.1100
     24 C24       -10.6780   -3.6043   57.6782 C.3     1  ZINC000010935976   -0.1200
     25 C25        -9.8428   -1.1254   56.5766 C.2     1  ZINC000010935976    0.5600
     26 O26       -10.4138   -1.8783   55.8063 O.2     1  ZINC000010935976   -0.5000
     27 S27        -7.3344    1.8900   56.1715 S.3     1  ZINC000010935976    0.2100
     28 H28        -6.5862    2.6092   53.4741 H       1  ZINC000010935976    0.0700
     29 H29        -6.7329    0.9851   52.7606 H       1  ZINC000010935976    0.0800
     30 H30        -8.1031    2.1186   52.6824 H       1  ZINC000010935976    0.0800
     31 H31        -8.4939   -1.3451   53.2887 H       1  ZINC000010935976    0.0700
     32 H32       -10.1507   -0.8976   53.7608 H       1  ZINC000010935976    0.0800
     33 H33        -9.2188    0.1598   52.6737 H       1  ZINC000010935976    0.0700
     34 H34        -7.4398   -0.1699   62.7290 H       1  ZINC000010935976    0.0900
     35 H35        -8.0170    1.4774   63.0615 H       1  ZINC000010935976    0.0900
     36 H36        -9.8053   -0.9537   62.7700 H       1  ZINC000010935976    0.0700
     37 H37        -9.2336   -0.3142   64.3167 H       1  ZINC000010935976    0.0800
     38 H38       -11.4671    0.4793   63.9540 H       1  ZINC000010935976    0.0800
     39 H39       -10.3581    1.8546   63.7689 H       1  ZINC000010935976    0.0700
     40 H40       -11.1122    0.2586   61.3250 H       1  ZINC000010935976    0.1100
     41 H41       -12.2798    1.4313   61.9885 H       1  ZINC000010935976    0.0900
     42 H42       -10.8848    3.1286   61.1988 H       1  ZINC000010935976    0.4000
     43 H43       -10.7187   -2.4275   59.4998 H       1  ZINC000010935976    0.1000
     44 H44       -13.0009   -2.2424   59.0271 H       1  ZINC000010935976    0.0800
     45 H45       -12.4717   -0.8113   58.0881 H       1  ZINC000010935976    0.0700
     46 H46       -13.8399   -2.7653   56.8314 H       1  ZINC000010935976    0.0600
     47 H47       -12.4036   -2.0549   56.0232 H       1  ZINC000010935976    0.1100
     48 H48       -12.5863   -4.6541   57.6439 H       1  ZINC000010935976    0.0600
     49 H49       -11.8544   -4.4029   56.0280 H       1  ZINC000010935976    0.0700
     50 H50        -9.9089   -3.4710   56.9175 H       1  ZINC000010935976    0.0800
     51 H51       -10.3824   -4.3885   58.3753 H       1  ZINC000010935976    0.0700
@<TRIPOS>BOND
     1     1     2    1
     2     1    28    1
     3     1    29    1
     4     1    30    1
     5     2    27    1
     6     2     3    2
     7     3     4    1
     8     3     5    1
     9     4    31    1
    10     4    32    1
    11     4    33    1
    12     5    25    1
    13     5     6    2
    14     6     7    1
    15     6    27    1
    16     7     8    2
    17     8     9    1
    18     8    19    1
    19     9    10    1
    20    10    11    1
    21    10    17    1
    22    10    12    1
    23    12    13    1
    24    12    34    1
    25    12    35    1
    26    13    14    1
    27    13    36    1
    28    13    37    1
    29    14    15    1
    30    14    38    1
    31    14    39    1
    32    15    16    1
    33    15    40    1
    34    15    41    1
    35    16    17   am
    36    16    42    1
    37    17    18    2
    38    19    20    1
    39    19    25   am
    40    20    24    1
    41    20    21    1
    42    20    43    1
    43    21    22    1
    44    21    44    1
    45    21    45    1
    46    22    23    1
    47    22    46    1
    48    22    47    1
    49    23    24    1
    50    23    48    1
    51    23    49    1
    52    24    50    1
    53    24    51    1
    54    25    26    2
@<TRIPOS>SUBSTRUCTURE
     1 ZINC000010935976        1 TEMP              0 ****  ****    0 ROOT


##########                                Name:    ZINC000345028113
##########                DOCK_Rotatable_Bonds:                   5
##########                         Heavy_Atoms:                  21
##########                    Molecular_Weight:             331.838
##########                DOCK_Rotatable_Bonds:                   5
##########                       Formal_Charge:         4.47035e-07
##########                     HBond_Acceptors:                   6
##########                        HBond_Donors:                   0
##########                         Heavy_Atoms:                  21
##########                          Grid_Score:          -26.669832
##########                     Grid_vdw_energy:          -25.799713
##########                      Grid_es_energy:           -0.870119
##########           Internal_energy_repulsive:           29.321657

@<TRIPOS>MOLECULE
ZINC000345028113
 40 41 1 0 0
SMALL
USER_CHARGES


@<TRIPOS>ATOM
      1 C1          0.1822    3.2150   46.6293 C.3     1  ZINC000345028113   -0.1700
      2 C2          0.6734    1.7672   46.6881 C.3     1  ZINC000345028113    0.1400
      3 H3          0.9741    1.5268   47.7079 H       1  ZINC000345028113    0.1100
      4 C4          1.8717    1.5959   45.7484 C.3     1  ZINC000345028113   -0.0700
      5 H5          2.2470    0.5749   45.8174 H       1  ZINC000345028113    0.0900
      6 C6          2.9777    2.5766   46.1436 C.3     1  ZINC000345028113   -0.1400
      7 S7          1.3335    1.9334   44.0457 S.3     1  ZINC000345028113   -0.2400
      8 C8         -0.0699    0.7954   43.8502 C.3     1  ZINC000345028113   -0.1100
      9 C9         -1.0716    1.0477   44.9820 C.3     1  ZINC000345028113    0.1000
     10 N10        -0.4051    0.8688   46.2729 N.am    1  ZINC000345028113   -0.6100
     11 C11        -0.7885   -0.1338   47.0879 C.2     1  ZINC000345028113    0.5200
     12 O12        -1.6824   -0.8809   46.7509 O.2     1  ZINC000345028113   -0.5300
     13 C13        -0.1065   -0.3264   48.4179 C.3     1  ZINC000345028113   -0.1400
     14 C14        -0.8395    0.4839   49.4889 C.3     1  ZINC000345028113    0.0700
     15 O15        -1.2878    1.7194   48.9280 O.3     1  ZINC000345028113   -0.3000
     16 C16        -2.2021    2.4267   49.6439 C.ar    1  ZINC000345028113    0.1300
     17 C17        -3.5554    2.1692   49.4881 C.ar    1  ZINC000345028113   -0.1700
     18 C18        -4.4837    2.8884   50.2167 C.ar    1  ZINC000345028113   -0.1100
     19 C19        -4.0633    3.8659   51.1021 C.ar    1  ZINC000345028113    0.0800
     20 F20        -4.9722    4.5676   51.8139 F       1  ZINC000345028113   -0.1300
     21 C21        -2.7121    4.1249   51.2595 C.ar    1  ZINC000345028113   -0.1100
     22 C22        -1.7810    3.4035   50.5361 C.ar    1  ZINC000345028113   -0.0400
     23 Cl23       -0.0870    3.7280   50.7332 Cl      1  ZINC000345028113   -0.0400
     24 H24        -0.6701    3.3370   47.2978 H       1  ZINC000345028113    0.0600
     25 H25         0.9853    3.8839   46.9386 H       1  ZINC000345028113    0.0800
     26 H26        -0.1185    3.4555   45.6096 H       1  ZINC000345028113    0.0800
     27 H27         3.2899    2.3780   47.1689 H       1  ZINC000345028113    0.0800
     28 H28         3.8290    2.4531   45.4742 H       1  ZINC000345028113    0.0700
     29 H29         2.6019    3.5970   46.0694 H       1  ZINC000345028113    0.0700
     30 H30        -0.5526    0.9722   42.8890 H       1  ZINC000345028113    0.1200
     31 H31         0.2850   -0.2341   43.8992 H       1  ZINC000345028113    0.0900
     32 H32        -1.4538    2.0658   44.9086 H       1  ZINC000345028113    0.0900
     33 H33        -1.8985    0.3424   44.8993 H       1  ZINC000345028113    0.1000
     34 H34        -0.1246   -1.3828   48.6858 H       1  ZINC000345028113    0.1100
     35 H35         0.9269    0.0134   48.3489 H       1  ZINC000345028113    0.1100
     36 H36        -1.6972   -0.0835   49.8502 H       1  ZINC000345028113    0.0800
     37 H37        -0.1621    0.6862   50.3186 H       1  ZINC000345028113    0.0800
     38 H38        -3.8842    1.4070   48.7972 H       1  ZINC000345028113    0.1500
     39 H39        -5.5379    2.6880   50.0950 H       1  ZINC000345028113    0.1500
     40 H40        -2.3855    4.8880   51.9505 H       1  ZINC000345028113    0.1500
@<TRIPOS>BOND
     1     1     2    1
     2     1    24    1
     3     1    25    1
     4     1    26    1
     5     2     3    1
     6     2    10    1
     7     2     4    1
     8     4     5    1
     9     4     6    1
    10     4     7    1
    11     6    27    1
    12     6    28    1
    13     6    29    1
    14     7     8    1
    15     8     9    1
    16     8    30    1
    17     8    31    1
    18     9    10    1
    19     9    32    1
    20     9    33    1
    21    10    11   am
    22    11    12    2
    23    11    13    1
    24    13    14    1
    25    13    34    1
    26    13    35    1
    27    14    15    1
    28    14    36    1
    29    14    37    1
    30    15    16    1
    31    16    22   ar
    32    16    17   ar
    33    17    18   ar
    34    17    38    1
    35    18    19   ar
    36    18    39    1
    37    19    20    1
    38    19    21   ar
    39    21    22   ar
    40    21    40    1
    41    22    23    1
@<TRIPOS>SUBSTRUCTURE
     1 ZINC000345028113        1 TEMP              0 ****  ****    0 ROOT


##########                                Name:    ZINC000002873519
##########                DOCK_Rotatable_Bonds:                   5
##########                         Heavy_Atoms:                  25
##########                    Molecular_Weight:             375.207
##########                DOCK_Rotatable_Bonds:                   5
##########                       Formal_Charge:               -0.02
##########                     HBond_Acceptors:                   6
##########                        HBond_Donors:                   0
##########                         Heavy_Atoms:                  25
##########                          Grid_Score:          -26.548630
##########                     Grid_vdw_energy:          -26.779613
##########                      Grid_es_energy:            0.230984
##########           Internal_energy_repulsive:            6.354829

@<TRIPOS>MOLECULE
ZINC000002873519
 37 39 1 0 0
SMALL
USER_CHARGES


@<TRIPOS>ATOM
      1 C1         -3.8348    2.6999   50.3213 C.3     1  ZINC000002873519   -0.1500
      2 C2         -5.1958    2.4923   50.9344 C.2     1  ZINC000002873519    0.4500
      3 O3         -6.1849    2.8688   50.3514 O.2     1  ZINC000002873519   -0.4800
      4 O4         -5.3093    1.8888   52.1286 O.3     1  ZINC000002873519   -0.2900
      5 C5         -6.4716    1.2348   52.3806 C.ar    1  ZINC000002873519    0.1200
      6 C6         -6.6762   -0.0393   51.8777 C.ar    1  ZINC000002873519   -0.1100
      7 C7         -7.8596   -0.7053   52.1349 C.ar    1  ZINC000002873519   -0.0800
      8 C8         -8.8522   -0.1073   52.8969 C.ar    1  ZINC000002873519   -0.0400
      9 Cl9       -10.3320   -0.9591   53.2101 Cl      1  ZINC000002873519   -0.0500
     10 C10        -8.6691    1.1600   53.4070 C.ar    1  ZINC000002873519   -0.0800
     11 C11        -7.4720    1.8454   53.1589 C.ar    1  ZINC000002873519   -0.0700
     12 C12        -7.2683    3.1912   53.6966 C.2     1  ZINC000002873519    0.0400
     13 C13        -7.3253    3.4061   55.0598 C.2     1  ZINC000002873519   -0.1900
     14 C14        -7.5708    2.4148   56.1215 C.2     1  ZINC000002873519   -0.2000
     15 C15        -7.5347    3.0889   57.2902 C.2     1  ZINC000002873519    0.1200
     16 C16        -7.7335    2.4697   58.6157 C.ar    1  ZINC000002873519   -0.0400
     17 C17        -7.8917    1.0864   58.7270 C.ar    1  ZINC000002873519   -0.0800
     18 C18        -8.0770    0.5143   59.9680 C.ar    1  ZINC000002873519   -0.1100
     19 C19        -8.1069    1.3083   61.1024 C.ar    1  ZINC000002873519   -0.0200
     20 Cl20       -8.3407    0.5802   62.6609 Cl      1  ZINC000002873519   -0.0600
     21 C21        -7.9506    2.6804   60.9988 C.ar    1  ZINC000002873519   -0.1100
     22 C22        -7.7583    3.2643   59.7643 C.ar    1  ZINC000002873519   -0.0800
     23 O23        -7.2932    4.4003   57.0916 O.3     1  ZINC000002873519   -0.2600
     24 C24        -7.1477    4.6792   55.7837 C.2     1  ZINC000002873519    0.5200
     25 O25        -6.9224    5.7698   55.2933 O.2     1  ZINC000002873519   -0.4200
     26 H26        -3.4353    3.6622   50.6413 H       1  ZINC000002873519    0.1100
     27 H27        -3.1654    1.9028   50.6445 H       1  ZINC000002873519    0.1000
     28 H28        -3.9197    2.6849   49.2347 H       1  ZINC000002873519    0.1100
     29 H29        -5.9094   -0.5133   51.2830 H       1  ZINC000002873519    0.1500
     30 H30        -8.0127   -1.6985   51.7393 H       1  ZINC000002873519    0.1500
     31 H31        -9.4448    1.6222   53.9995 H       1  ZINC000002873519    0.1500
     32 H32        -7.0734    4.0163   53.0276 H       1  ZINC000002873519    0.1500
     33 H33        -7.7460    1.3572   55.9905 H       1  ZINC000002873519    0.1700
     34 H34        -7.8693    0.4663   57.8430 H       1  ZINC000002873519    0.1400
     35 H35        -8.1994   -0.5552   60.0554 H       1  ZINC000002873519    0.1400
     36 H36        -7.9752    3.2942   61.8871 H       1  ZINC000002873519    0.1400
     37 H37        -7.6366    4.3344   59.6848 H       1  ZINC000002873519    0.1400
@<TRIPOS>BOND
     1     1     2    1
     2     1    26    1
     3     1    27    1
     4     1    28    1
     5     2     3    2
     6     2     4    1
     7     4     5    1
     8     5    11   ar
     9     5     6   ar
    10     6     7   ar
    11     6    29    1
    12     7     8   ar
    13     7    30    1
    14     8     9    1
    15     8    10   ar
    16    10    11   ar
    17    10    31    1
    18    11    12    1
    19    12    13    2
    20    12    32    1
    21    13    24    1
    22    13    14    1
    23    14    15    2
    24    14    33    1
    25    15    16    1
    26    15    23    1
    27    16    22   ar
    28    16    17   ar
    29    17    18   ar
    30    17    34    1
    31    18    19   ar
    32    18    35    1
    33    19    20    1
    34    19    21   ar
    35    21    22   ar
    36    21    36    1
    37    22    37    1
    38    23    24    1
    39    24    25    2
@<TRIPOS>SUBSTRUCTURE
     1 ZINC000002873519        1 TEMP              0 ****  ****    0 ROOT


##########                                Name:    ZINC000444205493
##########                DOCK_Rotatable_Bonds:                   4
##########                         Heavy_Atoms:                  24
##########                    Molecular_Weight:             415.351
##########                DOCK_Rotatable_Bonds:                   4
##########                       Formal_Charge:         -0.00999995
##########                     HBond_Acceptors:                   6
##########                        HBond_Donors:                   1
##########                         Heavy_Atoms:                  24
##########                          Grid_Score:          -26.351093
##########                     Grid_vdw_energy:          -25.153461
##########                      Grid_es_energy:           -1.197633
##########           Internal_energy_repulsive:            6.232955

@<TRIPOS>MOLECULE
ZINC000444205493
 47 49 1 0 0
SMALL
USER_CHARGES


@<TRIPOS>ATOM
      1 C1          1.9999    2.7651   49.5617 C.3     1  ZINC000444205493   -0.1700
      2 C2          0.6621    3.3138   49.9863 C.2     1  ZINC000444205493    0.5100
      3 O3          0.5331    4.5011   50.1977 O.2     1  ZINC000444205493   -0.5100
      4 N4         -0.3908    2.4851   50.1314 N.am    1  ZINC000444205493   -0.6800
      5 C5         -1.6333    2.9947   50.5257 C.ar    1  ZINC000444205493    0.2300
      6 C6         -1.7310    3.7897   51.6595 C.ar    1  ZINC000444205493   -0.1400
      7 C7         -2.9587    4.2917   52.0459 C.ar    1  ZINC000444205493    0.0200
      8 C8         -4.0898    4.0029   51.3052 C.ar    1  ZINC000444205493   -0.6900
      9 S9         -5.6536    4.6449   51.8023 S.o2    1  ZINC000444205493    2.7100
     10 O10        -5.3878    5.6218   52.7993 O.2     1  ZINC000444205493   -0.9500
     11 O11        -6.3692    4.9282   50.6076 O.2     1  ZINC000444205493   -0.9500
     12 N12        -6.4703    3.4174   52.5564 N.am    1  ZINC000444205493   -1.0100
     13 C13        -6.0219    2.7014   53.7658 C.3     1  ZINC000444205493    0.1200
     14 C14        -7.3199    2.1415   54.4037 C.3     1  ZINC000444205493   -0.1200
     15 C15        -8.1460    1.7828   53.1533 C.3     1  ZINC000444205493   -0.0700
     16 C16        -7.7896    0.3812   52.6471 C.3     1  ZINC000444205493   -0.1100
     17 C17        -8.9160   -0.5195   53.2185 C.3     1  ZINC000444205493   -0.1200
     18 C18       -10.1687    0.3875   53.1174 C.3     1  ZINC000444205493   -0.1000
     19 H19       -10.5747    0.3658   52.1061 H       1  ZINC000444205493    0.0700
     20 C20       -11.2300   -0.0509   54.1284 C.3     1  ZINC000444205493   -0.1500
     21 C21        -9.6433    1.8003   53.4590 C.3     1  ZINC000444205493   -0.1100
     22 C22        -7.7683    2.8634   52.1348 C.3     1  ZINC000444205493    0.1300
     23 C23        -3.9966    3.2116   50.1748 C.ar    1  ZINC000444205493    0.0300
     24 C24        -2.7710    2.7107   49.7798 C.ar    1  ZINC000444205493   -0.1500
     25 Br25       -2.6441    1.6288   48.2341 Br      1  ZINC000444205493   -0.0300
     26 H26         2.7228    3.5784   49.4988 H       1  ZINC000444205493    0.1000
     27 H27         2.3406    2.0319   50.2928 H       1  ZINC000444205493    0.1000
     28 H28         1.9039    2.2881   48.5864 H       1  ZINC000444205493    0.1000
     29 H29        -0.2876    1.5355   49.9624 H       1  ZINC000444205493    0.4200
     30 H30        -0.8481    4.0153   52.2392 H       1  ZINC000444205493    0.1600
     31 H31        -3.0350    4.9102   52.9280 H       1  ZINC000444205493    0.1500
     32 H32        -5.3499    1.8865   53.4964 H       1  ZINC000444205493    0.0800
     33 H33        -5.5284    3.3894   54.4522 H       1  ZINC000444205493    0.0800
     34 H34        -7.1106    1.2545   55.0018 H       1  ZINC000444205493    0.0900
     35 H35        -7.8230    2.9031   54.9995 H       1  ZINC000444205493    0.0800
     36 H36        -7.7950    0.3553   51.5574 H       1  ZINC000444205493    0.0700
     37 H37        -6.8187    0.0706   53.0332 H       1  ZINC000444205493    0.0700
     38 H38        -9.0387   -1.4160   52.6108 H       1  ZINC000444205493    0.0700
     39 H39        -8.7117   -0.7808   54.2568 H       1  ZINC000444205493    0.0700
     40 H40       -10.8140   -0.0052   55.1348 H       1  ZINC000444205493    0.0500
     41 H41       -12.0921    0.6128   54.0612 H       1  ZINC000444205493    0.0500
     42 H42       -11.5403   -1.0726   53.9096 H       1  ZINC000444205493    0.0500
     43 H43        -9.8079    2.0163   54.5146 H       1  ZINC000444205493    0.0700
     44 H44       -10.1433    2.5458   52.8408 H       1  ZINC000444205493    0.0700
     45 H45        -8.5270    3.6458   52.1239 H       1  ZINC000444205493    0.0700
     46 H46        -7.6739    2.4225   51.1424 H       1  ZINC000444205493    0.0800
     47 H47        -4.8820    2.9882   49.5982 H       1  ZINC000444205493    0.1500
@<TRIPOS>BOND
     1     1     2    1
     2     1    26    1
     3     1    27    1
     4     1    28    1
     5     2     3    2
     6     2     4   am
     7     4     5    1
     8     4    29    1
     9     5    24   ar
    10     5     6   ar
    11     6     7   ar
    12     6    30    1
    13     7     8   ar
    14     7    31    1
    15     8     9    1
    16     8    23   ar
    17     9    10    2
    18     9    11    2
    19     9    12   am
    20    12    22    1
    21    12    13    1
    22    13    14    1
    23    13    32    1
    24    13    33    1
    25    14    15    1
    26    14    34    1
    27    14    35    1
    28    15    21    1
    29    15    16    1
    30    15    22    1
    31    16    17    1
    32    16    36    1
    33    16    37    1
    34    17    18    1
    35    17    38    1
    36    17    39    1
    37    18    19    1
    38    18    20    1
    39    18    21    1
    40    20    40    1
    41    20    41    1
    42    20    42    1
    43    21    43    1
    44    21    44    1
    45    22    45    1
    46    22    46    1
    47    23    24   ar
    48    23    47    1
    49    24    25    1
@<TRIPOS>SUBSTRUCTURE
     1 ZINC000444205493        1 TEMP              0 ****  ****    0 ROOT


##########                                Name:    ZINC001023407238
##########                DOCK_Rotatable_Bonds:                   7
##########                         Heavy_Atoms:                  25
##########                    Molecular_Weight:             349.387
##########                DOCK_Rotatable_Bonds:                   7
##########                       Formal_Charge:          -0.0300008
##########                     HBond_Acceptors:                   8
##########                        HBond_Donors:                   2
##########                         Heavy_Atoms:                  25
##########                          Grid_Score:          -26.138187
##########                     Grid_vdw_energy:          -23.055441
##########                      Grid_es_energy:           -3.082746
##########           Internal_energy_repulsive:           23.207027

@<TRIPOS>MOLECULE
ZINC001023407238
 48 50 1 0 0
SMALL
USER_CHARGES


@<TRIPOS>ATOM
      1 C1          2.9170    4.3518   55.1862 C.3     1  ZINC001023407238   -0.0900
      2 C2          1.4669    4.6796   54.9395 C.2     1  ZINC001023407238   -0.1100
      3 C3          0.9150    5.1099   53.7517 C.2     1  ZINC001023407238   -0.0500
      4 C4          1.6333    5.3333   52.4925 C.2     1  ZINC001023407238    0.6100
      5 O5          2.1234    6.4218   52.2564 O.2     1  ZINC001023407238   -0.5100
      6 N6          1.7503    4.3330   51.5969 N.am    1  ZINC001023407238   -0.6100
      7 C7          2.4404    4.4190   50.3015 C.3     1  ZINC001023407238    0.0800
      8 C8          2.3409    3.0300   49.6363 C.3     1  ZINC001023407238    0.0900
      9 H9          1.5036    2.9954   48.9392 H       1  ZINC001023407238    0.0800
     10 O10         3.5625    2.6983   48.9733 O.3     1  ZINC001023407238   -0.5500
     11 C11         2.0915    2.0846   50.8411 C.3     1  ZINC001023407238    0.1400
     12 H12         3.0280    1.8261   51.3352 H       1  ZINC001023407238    0.1200
     13 N13         1.3716    0.8793   50.4226 N.am    1  ZINC001023407238   -0.7200
     14 C14         0.1873    0.9878   49.7885 C.2     1  ZINC001023407238    0.5200
     15 O15        -0.2831    2.0833   49.5656 O.2     1  ZINC001023407238   -0.5300
     16 C16        -0.5524   -0.2520   49.3563 C.3     1  ZINC001023407238   -0.1300
     17 C17        -0.2795   -0.5183   47.8747 C.3     1  ZINC001023407238   -0.1100
     18 H18         0.7870   -0.6577   47.6971 H       1  ZINC001023407238    0.1100
     19 C19        -1.0848   -1.7402   47.3772 C.3     1  ZINC001023407238    0.0600
     20 O20        -1.4386   -1.4074   46.0022 O.3     1  ZINC001023407238   -0.3500
     21 C21        -1.5759   -0.0800   45.8747 C.2     1  ZINC001023407238    0.4800
     22 O22        -2.1927    0.4732   44.9951 O.2     1  ZINC001023407238   -0.4600
     23 C23        -0.8385    0.6245   46.9981 C.3     1  ZINC001023407238   -0.1800
     24 C24         1.2129    2.9694   51.7566 C.3     1  ZINC001023407238    0.1000
     25 N25        -0.4332    5.2912   53.9626 N.pl3   1  ZINC001023407238   -0.4200
     26 C26        -1.4014    5.7438   52.9606 C.3     1  ZINC001023407238    0.0700
     27 C27        -0.7157    4.9815   55.2514 C.2     1  ZINC001023407238    0.0100
     28 C28         0.4268    4.5989   55.8705 C.2     1  ZINC001023407238   -0.2000
     29 H29         3.0936    3.2984   54.9684 H       1  ZINC001023407238    0.0600
     30 H30         3.5436    4.9664   54.5398 H       1  ZINC001023407238    0.0600
     31 H31         3.1628    4.5534   56.2289 H       1  ZINC001023407238    0.0700
     32 H32         1.9568    5.1666   49.6728 H       1  ZINC001023407238    0.0800
     33 H33         3.4869    4.6819   50.4558 H       1  ZINC001023407238    0.0800
     34 H34         4.2563    3.3648   49.0705 H       1  ZINC001023407238    0.3900
     35 H35         1.7473    0.0032   50.6018 H       1  ZINC001023407238    0.4100
     36 H36        -0.2122   -1.1025   49.9471 H       1  ZINC001023407238    0.1000
     37 H37        -1.6222   -0.1085   49.5087 H       1  ZINC001023407238    0.1100
     38 H38        -0.4688   -2.6390   47.4050 H       1  ZINC001023407238    0.1200
     39 H39        -1.9833   -1.8747   47.9795 H       1  ZINC001023407238    0.0800
     40 H40        -1.5272    1.2409   47.5759 H       1  ZINC001023407238    0.1100
     41 H41        -0.0283    1.2334   46.5968 H       1  ZINC001023407238    0.1200
     42 H42         1.2974    2.6438   52.7935 H       1  ZINC001023407238    0.0900
     43 H43         0.1730    2.9367   51.4314 H       1  ZINC001023407238    0.0800
     44 H44        -1.8780    4.8788   52.4993 H       1  ZINC001023407238    0.0800
     45 H45        -2.1592    6.3628   53.4412 H       1  ZINC001023407238    0.0900
     46 H46        -0.8877    6.3264   52.1960 H       1  ZINC001023407238    0.0800
     47 H47        -1.6927    5.0283   55.7091 H       1  ZINC001023407238    0.1700
     48 H48         0.5192    4.2928   56.9021 H       1  ZINC001023407238    0.1400
@<TRIPOS>BOND
     1     1     2    1
     2     1    29    1
     3     1    30    1
     4     1    31    1
     5     2    28    1
     6     2     3    2
     7     3     4    1
     8     3    25    1
     9     4     5    2
    10     4     6   am
    11     6    24    1
    12     6     7    1
    13     7     8    1
    14     7    32    1
    15     7    33    1
    16     8     9    1
    17     8    10    1
    18     8    11    1
    19    10    34    1
    20    11    12    1
    21    11    13    1
    22    11    24    1
    23    13    14   am
    24    13    35    1
    25    14    15    2
    26    14    16    1
    27    16    17    1
    28    16    36    1
    29    16    37    1
    30    17    18    1
    31    17    23    1
    32    17    19    1
    33    19    20    1
    34    19    38    1
    35    19    39    1
    36    20    21    1
    37    21    22    2
    38    21    23    1
    39    23    40    1
    40    23    41    1
    41    24    42    1
    42    24    43    1
    43    25    26    1
    44    25    27    1
    45    26    44    1
    46    26    45    1
    47    26    46    1
    48    27    28    2
    49    27    47    1
    50    28    48    1
@<TRIPOS>SUBSTRUCTURE
     1 ZINC001023407238        1 TEMP              0 ****  ****    0 ROOT


##########                                Name:    ZINC000004040798
##########                DOCK_Rotatable_Bonds:                   3
##########                         Heavy_Atoms:                  22
##########                    Molecular_Weight:             361.151
##########                DOCK_Rotatable_Bonds:                   3
##########                       Formal_Charge:           0.0200003
##########                     HBond_Acceptors:                   6
##########                        HBond_Donors:                   1
##########                         Heavy_Atoms:                  22
##########                          Grid_Score:          -26.124260
##########                     Grid_vdw_energy:          -25.407360
##########                      Grid_es_energy:           -0.716900
##########           Internal_energy_repulsive:            2.252617

@<TRIPOS>MOLECULE
ZINC000004040798
 31 33 1 0 0
SMALL
USER_CHARGES


@<TRIPOS>ATOM
      1 O1        -10.5311   -1.2902   54.8279 O.2     1  ZINC000004040798   -0.4800
      2 C2        -10.2950   -0.8548   55.9392 C.2     1  ZINC000004040798    0.6100
      3 N3        -11.0135   -1.2812   56.9968 N.am    1  ZINC000004040798   -0.6600
      4 C4        -12.0342   -2.2199   56.8160 C.ar    1  ZINC000004040798    0.2300
      5 C5        -13.1843   -1.8721   56.1202 C.ar    1  ZINC000004040798   -0.1300
      6 C6        -14.1909   -2.8016   55.9434 C.ar    1  ZINC000004040798   -0.0100
      7 C7        -14.0544   -4.0774   56.4583 C.ar    1  ZINC000004040798   -0.0600
      8 N8        -15.1352   -5.0705   56.2667 N.pl3   1  ZINC000004040798    0.0300
      9 O9        -16.1433   -4.7633   55.6560 O.2     1  ZINC000004040798   -0.1500
     10 O10       -15.0164   -6.1949   56.7196 O.2     1  ZINC000004040798   -0.1500
     11 C11       -12.9102   -4.4282   57.1515 C.ar    1  ZINC000004040798    0.0000
     12 C12       -11.8973   -3.5051   57.3276 C.ar    1  ZINC000004040798   -0.1400
     13 Br13      -10.3331   -3.9852   58.2755 Br      1  ZINC000004040798    0.0000
     14 C14        -9.2226    0.1316   56.1292 C.2     1  ZINC000004040798   -0.0500
     15 C15        -8.5215    0.7262   55.1293 C.2     1  ZINC000004040798   -0.0800
     16 C16        -7.5686    1.6241   55.7811 C.ar    1  ZINC000004040798   -0.1500
     17 C17        -6.5845    2.5008   55.3191 C.ar    1  ZINC000004040798   -0.0500
     18 C18        -5.8418    3.2179   56.2146 C.ar    1  ZINC000004040798   -0.1400
     19 C19        -6.0591    3.0800   57.5785 C.ar    1  ZINC000004040798   -0.0700
     20 C20        -7.0254    2.2202   58.0547 C.ar    1  ZINC000004040798   -0.1100
     21 C21        -7.7936    1.4807   57.1631 C.ar    1  ZINC000004040798    0.0800
     22 O22        -8.7895    0.5876   57.3232 O.3     1  ZINC000004040798   -0.1900
     23 H23       -10.8224   -0.9370   57.8834 H       1  ZINC000004040798    0.4300
     24 H24       -13.2921   -0.8755   55.7179 H       1  ZINC000004040798    0.1800
     25 H25       -15.0857   -2.5312   55.4026 H       1  ZINC000004040798    0.1700
     26 H26       -12.8067   -5.4256   57.5525 H       1  ZINC000004040798    0.1700
     27 H27        -8.6427    0.5677   54.0678 H       1  ZINC000004040798    0.1800
     28 H28        -6.4109    2.6114   54.2589 H       1  ZINC000004040798    0.1400
     29 H29        -5.0805    3.8961   55.8586 H       1  ZINC000004040798    0.1400
     30 H30        -5.4640    3.6526   58.2745 H       1  ZINC000004040798    0.1400
     31 H31        -7.1856    2.1215   59.1181 H       1  ZINC000004040798    0.1400
@<TRIPOS>BOND
     1     1     2    2
     2     2     3   am
     3     2    14    1
     4     3     4    1
     5     3    23    1
     6     4    12   ar
     7     4     5   ar
     8     5     6   ar
     9     5    24    1
    10     6     7   ar
    11     6    25    1
    12     7     8    1
    13     7    11   ar
    14     8     9    2
    15     8    10    2
    16    11    12   ar
    17    11    26    1
    18    12    13    1
    19    14    22    1
    20    14    15    2
    21    15    16    1
    22    15    27    1
    23    16    21   ar
    24    16    17   ar
    25    17    18   ar
    26    17    28    1
    27    18    19   ar
    28    18    29    1
    29    19    20   ar
    30    19    30    1
    31    20    21   ar
    32    20    31    1
    33    21    22    1
@<TRIPOS>SUBSTRUCTURE
     1 ZINC000004040798        1 TEMP              0 ****  ****    0 ROOT


##########                                Name:    ZINC001231746020
##########                DOCK_Rotatable_Bonds:                   3
##########                         Heavy_Atoms:                  19
##########                    Molecular_Weight:             348.667
##########                DOCK_Rotatable_Bonds:                   3
##########                       Formal_Charge:          -0.0399997
##########                     HBond_Acceptors:                   4
##########                        HBond_Donors:                   2
##########                         Heavy_Atoms:                  19
##########                          Grid_Score:          -26.094835
##########                     Grid_vdw_energy:          -25.856657
##########                      Grid_es_energy:           -0.238179
##########           Internal_energy_repulsive:            9.717189

@<TRIPOS>MOLECULE
ZINC001231746020
 38 39 1 0 0
SMALL
USER_CHARGES


@<TRIPOS>ATOM
      1 C1         -1.6487    0.1611   44.0473 C.3     1  ZINC001231746020   -0.1500
      2 C2         -1.3422    0.7064   45.4435 C.3     1  ZINC001231746020   -0.0900
      3 H3         -2.2256    1.2047   45.8430 H       1  ZINC001231746020    0.0800
      4 C4         -0.9482   -0.4270   46.3525 C.3     1  ZINC001231746020   -0.1400
      5 C5         -1.3479   -0.2032   47.8220 C.3     1  ZINC001231746020   -0.0100
      6 N6         -1.0910    1.1718   48.3016 N.4     1  ZINC001231746020   -0.3800
      7 H7         -1.8256    1.7782   47.9689 H       1  ZINC001231746020    0.4100
      8 C8         -1.0976    1.1748   49.7705 C.3     1  ZINC001231746020    0.0700
      9 C9         -1.8545    2.3796   50.2670 C.ar    1  ZINC001231746020   -0.3100
     10 C10        -3.2353    2.4014   50.2033 C.ar    1  ZINC001231746020   -0.0300
     11 C11        -3.9323    3.5054   50.6586 C.ar    1  ZINC001231746020   -0.1600
     12 Cl12       -5.6662    3.5320   50.5783 Cl      1  ZINC001231746020   -0.0800
     13 C13        -3.2443    4.5924   51.1793 C.ar    1  ZINC001231746020    0.3100
     14 O14        -3.9270    5.6790   51.6281 O.3     1  ZINC001231746020   -0.6300
     15 C15        -1.8581    4.5678   51.2415 C.ar    1  ZINC001231746020   -0.2100
     16 Br16       -0.9162    6.0465   51.9502 Br      1  ZINC001231746020   -0.0600
     17 C17        -1.1669    3.4590   50.7906 C.ar    1  ZINC001231746020   -0.0200
     18 C18         0.1784    1.6760   47.8367 C.3     1  ZINC001231746020   -0.0200
     19 C19        -0.0808    2.5155   46.5752 C.3     1  ZINC001231746020   -0.1800
     20 C20        -0.1676    1.7132   45.3613 C.3     1  ZINC001231746020    0.1000
     21 H21        -0.3205    2.3724   44.5068 H       1  ZINC001231746020    0.0700
     22 O22         1.0549    0.9946   45.1854 O.3     1  ZINC001231746020   -0.5600
     23 H23        -2.4677   -0.5556   44.1088 H       1  ZINC001231746020    0.0600
     24 H24        -0.7630   -0.3328   43.6477 H       1  ZINC001231746020    0.0700
     25 H25        -1.9338    0.9831   43.3906 H       1  ZINC001231746020    0.0600
     26 H26        -1.4236   -1.3411   45.9968 H       1  ZINC001231746020    0.1000
     27 H27         0.1332   -0.5548   46.3025 H       1  ZINC001231746020    0.1000
     28 H28        -2.4111   -0.4175   47.9308 H       1  ZINC001231746020    0.1200
     29 H29        -0.7886   -0.9003   48.4458 H       1  ZINC001231746020    0.1200
     30 H30        -1.5804    0.2674   50.1336 H       1  ZINC001231746020    0.1200
     31 H31        -0.0723    1.2129   50.1384 H       1  ZINC001231746020    0.1200
     32 H32        -3.7701    1.5552   49.7979 H       1  ZINC001231746020    0.1100
     33 H33        -0.0883    3.4373   50.8435 H       1  ZINC001231746020    0.1100
     34 H34         0.6325    2.2988   48.6075 H       1  ZINC001231746020    0.1400
     35 H35         0.8406    0.8440   47.5974 H       1  ZINC001231746020    0.1300
     36 H36        -1.0162    3.0603   46.7029 H       1  ZINC001231746020    0.0900
     37 H37         0.7300    3.2350   46.4604 H       1  ZINC001231746020    0.1100
     38 H38         1.8403    1.5575   45.1488 H       1  ZINC001231746020    0.3900
@<TRIPOS>BOND
     1     1     2    1
     2     1    23    1
     3     1    24    1
     4     1    25    1
     5     2     3    1
     6     2    20    1
     7     2     4    1
     8     4     5    1
     9     4    26    1
    10     4    27    1
    11     5     6    1
    12     5    28    1
    13     5    29    1
    14     6     7    1
    15     6     8    1
    16     6    18    1
    17     8     9    1
    18     8    30    1
    19     8    31    1
    20     9    17   ar
    21     9    10   ar
    22    10    11   ar
    23    10    32    1
    24    11    12    1
    25    11    13   ar
    26    13    14    1
    27    13    15   ar
    28    15    16    1
    29    15    17   ar
    30    17    33    1
    31    18    19    1
    32    18    34    1
    33    18    35    1
    34    19    20    1
    35    19    36    1
    36    19    37    1
    37    20    21    1
    38    20    22    1
    39    22    38    1
@<TRIPOS>SUBSTRUCTURE
     1 ZINC001231746020        1 TEMP              0 ****  ****    0 ROOT


##########                                Name:    ZINC000794876634
##########                DOCK_Rotatable_Bonds:                   4
##########                         Heavy_Atoms:                  24
##########                    Molecular_Weight:             389.249
##########                DOCK_Rotatable_Bonds:                   4
##########                       Formal_Charge:        -4.47035e-08
##########                     HBond_Acceptors:                   5
##########                        HBond_Donors:                   0
##########                         Heavy_Atoms:                  24
##########                          Grid_Score:          -26.008978
##########                     Grid_vdw_energy:          -25.034552
##########                      Grid_es_energy:           -0.974426
##########           Internal_energy_repulsive:           53.510231

@<TRIPOS>MOLECULE
ZINC000794876634
 41 43 1 0 0
SMALL
USER_CHARGES


@<TRIPOS>ATOM
      1 C1          3.6868   -0.3603   46.6882 C.3     1  ZINC000794876634    0.0200
      2 O2          2.9554    0.7399   46.1437 O.3     1  ZINC000794876634   -0.3000
      3 C3          1.6860    0.9185   46.5918 C.ar    1  ZINC000794876634    0.1300
      4 C4          1.1397    0.0203   47.4994 C.ar    1  ZINC000794876634   -0.1800
      5 C5         -0.1472    0.1952   47.9576 C.ar    1  ZINC000794876634   -0.0400
      6 C6         -0.7361   -0.7817   48.9423 C.3     1  ZINC000794876634   -0.1200
      7 C7         -0.9084    1.2822   47.5078 C.ar    1  ZINC000794876634   -0.1000
      8 C8         -2.2782    1.4717   47.9937 C.2     1  ZINC000794876634    0.0600
      9 C9         -2.5078    2.2146   49.1155 C.2     1  ZINC000794876634   -0.1700
     10 C10        -3.8055    2.5107   49.7464 C.2     1  ZINC000794876634    0.5700
     11 O11        -4.8944    2.1304   49.3567 O.2     1  ZINC000794876634   -0.4900
     12 N12        -3.5755    3.2740   50.8279 N.am    1  ZINC000794876634   -0.5300
     13 C13        -4.6236    3.7744   51.7209 C.3     1  ZINC000794876634    0.0800
     14 C14        -2.2230    3.5285   50.9941 C.ar    1  ZINC000794876634    0.3700
     15 N15        -1.5665    4.2253   51.9134 N.ar    1  ZINC000794876634   -0.4900
     16 C16        -0.2546    4.3463   51.8905 C.ar    1  ZINC000794876634    0.1800
     17 C17         0.5098    3.7508   50.9029 C.ar    1  ZINC000794876634   -0.1800
     18 Br18        2.3909    3.9441   50.9000 Br      1  ZINC000794876634   -0.0200
     19 C19        -0.1222    3.0096   49.9149 C.ar    1  ZINC000794876634    0.0000
     20 C20        -1.5072    2.8936   49.9679 C.ar    1  ZINC000794876634   -0.1400
     21 C21        -0.3552    2.1882   46.5919 C.ar    1  ZINC000794876634   -0.1400
     22 C22         0.9369    2.0069   46.1431 C.ar    1  ZINC000794876634    0.0900
     23 O23         1.4770    2.8838   45.2550 O.3     1  ZINC000794876634   -0.3000
     24 C24         2.6945    2.4936   44.6167 C.3     1  ZINC000794876634    0.0200
     25 H25         4.6829   -0.3885   46.2466 H       1  ZINC000794876634    0.1000
     26 H26         3.7715   -0.2412   47.7684 H       1  ZINC000794876634    0.0600
     27 H27         3.1639   -1.2903   46.4651 H       1  ZINC000794876634    0.0600
     28 H28         1.7257   -0.8178   47.8466 H       1  ZINC000794876634    0.1400
     29 H29        -0.5236   -0.4467   49.9576 H       1  ZINC000794876634    0.0800
     30 H30        -1.8148   -0.8387   48.7967 H       1  ZINC000794876634    0.0700
     31 H31        -0.2957   -1.7663   48.7850 H       1  ZINC000794876634    0.0700
     32 H32        -3.1058    1.0235   47.4641 H       1  ZINC000794876634    0.1500
     33 H33        -5.5961    3.4314   51.3677 H       1  ZINC000794876634    0.0900
     34 H34        -4.4507    3.3997   52.7298 H       1  ZINC000794876634    0.0800
     35 H35        -4.6037    4.8641   51.7296 H       1  ZINC000794876634    0.0800
     36 H36         0.2354    4.9241   52.6603 H       1  ZINC000794876634    0.1800
     37 H37         0.4455    2.5325   49.1298 H       1  ZINC000794876634    0.1600
     38 H38        -0.9374    3.0278   46.2419 H       1  ZINC000794876634    0.1400
     39 H39         3.4853    2.4109   45.3623 H       1  ZINC000794876634    0.0500
     40 H40         2.5552    1.5302   44.1263 H       1  ZINC000794876634    0.0600
     41 H41         2.9718    3.2422   43.8745 H       1  ZINC000794876634    0.1100
@<TRIPOS>BOND
     1     1     2    1
     2     1    25    1
     3     1    26    1
     4     1    27    1
     5     2     3    1
     6     3    22   ar
     7     3     4   ar
     8     4     5   ar
     9     4    28    1
    10     5     6    1
    11     5     7   ar
    12     6    29    1
    13     6    30    1
    14     6    31    1
    15     7     8    1
    16     7    21   ar
    17     8     9    2
    18     8    32    1
    19     9    20    1
    20     9    10    1
    21    10    11    2
    22    10    12   am
    23    12    13    1
    24    12    14    1
    25    13    33    1
    26    13    34    1
    27    13    35    1
    28    14    20   ar
    29    14    15   ar
    30    15    16   ar
    31    16    17   ar
    32    16    36    1
    33    17    18    1
    34    17    19   ar
    35    19    20   ar
    36    19    37    1
    37    21    22   ar
    38    21    38    1
    39    22    23    1
    40    23    24    1
    41    24    39    1
    42    24    40    1
    43    24    41    1
@<TRIPOS>SUBSTRUCTURE
     1 ZINC000794876634        1 TEMP              0 ****  ****    0 ROOT


##########                                Name:    ZINC001318556452
##########                DOCK_Rotatable_Bonds:                   4
##########                         Heavy_Atoms:                  26
##########                    Molecular_Weight:             368.456
##########                DOCK_Rotatable_Bonds:                   4
##########                       Formal_Charge:          -0.0200005
##########                     HBond_Acceptors:                   6
##########                        HBond_Donors:                   1
##########                         Heavy_Atoms:                  26
##########                          Grid_Score:          -26.000475
##########                     Grid_vdw_energy:          -26.562387
##########                      Grid_es_energy:            0.561913
##########           Internal_energy_repulsive:           19.839008

@<TRIPOS>MOLECULE
ZINC001318556452
 46 48 1 0 0
SMALL
USER_CHARGES


@<TRIPOS>ATOM
      1 C1         -2.4859    1.5678   49.1368 C.3     1  ZINC001318556452   -0.1300
      2 C2         -1.4049    2.4372   48.5483 C.ar    1  ZINC001318556452   -0.1000
      3 C3         -1.1784    2.4317   47.1862 C.ar    1  ZINC001318556452   -0.0500
      4 C4         -2.0127    1.5551   46.2881 C.3     1  ZINC001318556452   -0.4100
      5 S5         -1.1028    1.2202   44.7550 S.o     1  ZINC001318556452    1.2500
      6 C6         -2.2494    0.1698   43.8210 C.3     1  ZINC001318556452   -0.4900
      7 O7          0.0759    0.4852   45.0547 O.2     1  ZINC001318556452   -0.8400
      8 C8         -0.1870    3.2300   46.6452 C.ar    1  ZINC001318556452   -0.1200
      9 C9          0.5811    4.0354   47.4657 C.ar    1  ZINC001318556452   -0.1000
     10 C10         0.3604    4.0450   48.8292 C.ar    1  ZINC001318556452   -0.1200
     11 C11        -0.6387    3.2495   49.3750 C.ar    1  ZINC001318556452    0.1400
     12 N12        -0.8651    3.2572   50.7545 N.am    1  ZINC001318556452   -0.6600
     13 C13        -1.0554    4.4251   51.3996 C.2     1  ZINC001318556452    0.5600
     14 O14        -1.0304    5.4713   50.7823 O.2     1  ZINC001318556452   -0.5000
     15 C15        -1.2954    4.4332   52.8627 C.2     1  ZINC001318556452   -0.0300
     16 C16        -2.5451    4.2097   53.3663 C.2     1  ZINC001318556452   -0.1600
     17 C17        -2.7499    4.2235   54.8128 C.2     1  ZINC001318556452    0.5300
     18 O18        -3.8643    4.0243   55.2628 O.2     1  ZINC001318556452   -0.5200
     19 N19        -1.7270    4.4523   55.6546 N.am    1  ZINC001318556452   -0.5200
     20 C20        -1.9734    4.4568   57.0988 C.3     1  ZINC001318556452    0.0600
     21 C21        -0.4510    4.6821   55.1866 C.ar    1  ZINC001318556452    0.1800
     22 C22         0.5947    4.9170   56.0754 C.ar    1  ZINC001318556452   -0.1700
     23 C23         1.8654    5.1454   55.5940 C.ar    1  ZINC001318556452   -0.0600
     24 C24         2.1151    5.1437   54.2286 C.ar    1  ZINC001318556452   -0.1500
     25 C25         1.1041    4.9156   53.3384 C.ar    1  ZINC001318556452   -0.0600
     26 C26        -0.1917    4.6760   53.8044 C.ar    1  ZINC001318556452   -0.1100
     27 H27        -3.4252    2.1205   49.1584 H       1  ZINC001318556452    0.0800
     28 H28        -2.6051    0.6728   48.5261 H       1  ZINC001318556452    0.0800
     29 H29        -2.2096    1.2811   50.1515 H       1  ZINC001318556452    0.0700
     30 H30        -2.2276    0.6148   46.7958 H       1  ZINC001318556452    0.1000
     31 H31        -2.9480    2.0626   46.0520 H       1  ZINC001318556452    0.1300
     32 H32        -3.1788    0.7119   43.6466 H       1  ZINC001318556452    0.1100
     33 H33        -1.8000   -0.0979   42.8647 H       1  ZINC001318556452    0.1100
     34 H34        -2.4584   -0.7358   44.3905 H       1  ZINC001318556452    0.0800
     35 H35        -0.0121    3.2241   45.5795 H       1  ZINC001318556452    0.1200
     36 H36         1.3547    4.6573   47.0401 H       1  ZINC001318556452    0.1300
     37 H37         0.9610    4.6740   49.4695 H       1  ZINC001318556452    0.1500
     38 H38        -0.8851    2.4220   51.2473 H       1  ZINC001318556452    0.4100
     39 H39        -3.3752    4.0247   52.7007 H       1  ZINC001318556452    0.1600
     40 H40        -3.0285    4.2593   57.2880 H       1  ZINC001318556452    0.1000
     41 H41        -1.3683    3.6843   57.5731 H       1  ZINC001318556452    0.0800
     42 H42        -1.7067    5.4306   57.5097 H       1  ZINC001318556452    0.0800
     43 H43         0.4103    4.9205   57.1396 H       1  ZINC001318556452    0.1400
     44 H44         2.6747    5.3277   56.2855 H       1  ZINC001318556452    0.1300
     45 H45         3.1165    5.3248   53.8670 H       1  ZINC001318556452    0.1300
     46 H46         1.3065    4.9159   52.2775 H       1  ZINC001318556452    0.1700
@<TRIPOS>BOND
     1     1     2    1
     2     1    27    1
     3     1    28    1
     4     1    29    1
     5     2    11   ar
     6     2     3   ar
     7     3     4    1
     8     3     8   ar
     9     4     5    1
    10     4    30    1
    11     4    31    1
    12     5     6    1
    13     5     7    2
    14     6    32    1
    15     6    33    1
    16     6    34    1
    17     8     9   ar
    18     8    35    1
    19     9    10   ar
    20     9    36    1
    21    10    11   ar
    22    10    37    1
    23    11    12    1
    24    12    13   am
    25    12    38    1
    26    13    14    2
    27    13    15    1
    28    15    26    1
    29    15    16    2
    30    16    17    1
    31    16    39    1
    32    17    18    2
    33    17    19   am
    34    19    20    1
    35    19    21    1
    36    20    40    1
    37    20    41    1
    38    20    42    1
    39    21    26   ar
    40    21    22   ar
    41    22    23   ar
    42    22    43    1
    43    23    24   ar
    44    23    44    1
    45    24    25   ar
    46    24    45    1
    47    25    26   ar
    48    25    46    1
@<TRIPOS>SUBSTRUCTURE
     1 ZINC001318556452        1 TEMP              0 ****  ****    0 ROOT


##########                                Name:    ZINC000080099940
##########                DOCK_Rotatable_Bonds:                   4
##########                         Heavy_Atoms:                  26
##########                    Molecular_Weight:             343.388
##########                DOCK_Rotatable_Bonds:                   4
##########                       Formal_Charge:        -3.42727e-07
##########                     HBond_Acceptors:                   6
##########                        HBond_Donors:                   1
##########                         Heavy_Atoms:                  26
##########                          Grid_Score:          -25.935665
##########                     Grid_vdw_energy:          -25.298508
##########                      Grid_es_energy:           -0.637156
##########           Internal_energy_repulsive:            3.335697

@<TRIPOS>MOLECULE
ZINC000080099940
 43 46 1 0 0
SMALL
USER_CHARGES


@<TRIPOS>ATOM
      1 C1         -0.7251    2.6653   48.8803 C.3     1  ZINC000080099940   -0.1100
      2 C2         -1.9703    2.8369   49.7118 C.2     1  ZINC000080099940   -0.0700
      3 C3         -2.8917    1.8386   49.7760 C.2     1  ZINC000080099940   -0.0900
      4 C4         -4.0507    2.0171   50.5591 C.2     1  ZINC000080099940    0.2300
      5 N5         -5.0906    1.2320   50.7982 N.2     1  ZINC000080099940   -0.4800
      6 C6         -5.9414    1.8673   51.6197 C.2     1  ZINC000080099940    0.1000
      7 C7         -7.2268    1.3268   52.1268 C.ar    1  ZINC000080099940   -0.0200
      8 C8         -8.1903    2.1897   52.6463 C.ar    1  ZINC000080099940   -0.0800
      9 C9         -9.3842    1.6854   53.1166 C.ar    1  ZINC000080099940   -0.1200
     10 C10        -9.6271    0.3175   53.0732 C.ar    1  ZINC000080099940    0.1500
     11 N11       -10.8379   -0.1916   53.5509 N.am    1  ZINC000080099940   -0.6500
     12 C12       -10.9896   -0.4473   54.8654 C.2     1  ZINC000080099940    0.5700
     13 O13       -10.0738   -0.2354   55.6352 O.2     1  ZINC000080099940   -0.5000
     14 C14       -12.2752   -0.9879   55.3726 C.ar    1  ZINC000080099940    0.1300
     15 C15       -12.3889   -1.4265   56.6923 C.ar    1  ZINC000080099940   -0.1700
     16 C16       -13.6135   -1.9229   57.1166 C.ar    1  ZINC000080099940    0.1600
     17 N17       -14.6225   -1.9630   56.2637 N.ar    1  ZINC000080099940   -0.5000
     18 C18       -14.4809   -1.5400   55.0222 C.ar    1  ZINC000080099940    0.3200
     19 C19       -15.6614   -1.6062   54.0877 C.3     1  ZINC000080099940   -0.0900
     20 N20       -13.3409   -1.0572   54.5777 N.ar    1  ZINC000080099940   -0.5000
     21 C21        -8.6679   -0.5447   52.5552 C.ar    1  ZINC000080099940   -0.1400
     22 C22        -7.4748   -0.0440   52.0791 C.ar    1  ZINC000080099940   -0.0700
     23 C23        -5.4218    3.0932   51.9087 C.2     1  ZINC000080099940   -0.0900
     24 N24        -4.2317    3.1918   51.2432 N.pl3   1  ZINC000080099940   -0.3600
     25 C25        -3.2983    4.1854   51.1696 C.2     1  ZINC000080099940    0.0600
     26 C26        -2.1816    4.0262   50.4287 C.2     1  ZINC000080099940   -0.1400
     27 H27        -0.1106    3.5624   48.9571 H       1  ZINC000080099940    0.0700
     28 H28        -0.1610    1.8064   49.2436 H       1  ZINC000080099940    0.0800
     29 H29        -1.0031    2.5034   47.8389 H       1  ZINC000080099940    0.0800
     30 H30        -2.7375    0.9183   49.2321 H       1  ZINC000080099940    0.1500
     31 H31        -8.0017    3.2526   52.6808 H       1  ZINC000080099940    0.1300
     32 H32       -10.1311    2.3536   53.5191 H       1  ZINC000080099940    0.1400
     33 H33       -11.5691   -0.3607   52.9364 H       1  ZINC000080099940    0.4200
     34 H34       -11.5458   -1.3814   57.3657 H       1  ZINC000080099940    0.1600
     35 H35       -13.7404   -2.2721   58.1308 H       1  ZINC000080099940    0.1800
     36 H36       -16.2284   -0.6776   54.1521 H       1  ZINC000080099940    0.0900
     37 H37       -15.3084   -1.7464   53.0660 H       1  ZINC000080099940    0.0900
     38 H38       -16.3010   -2.4429   54.3692 H       1  ZINC000080099940    0.0900
     39 H39        -8.8587   -1.6072   52.5225 H       1  ZINC000080099940    0.1300
     40 H40        -6.7298   -0.7143   51.6763 H       1  ZINC000080099940    0.1400
     41 H41        -5.8664    3.8453   52.5434 H       1  ZINC000080099940    0.1900
     42 H42        -3.4529    5.1057   51.7132 H       1  ZINC000080099940    0.1700
     43 H43        -1.4513    4.8204   50.3798 H       1  ZINC000080099940    0.1500
@<TRIPOS>BOND
     1     1     2    1
     2     1    27    1
     3     1    28    1
     4     1    29    1
     5     2    26    1
     6     2     3    2
     7     3     4    1
     8     3    30    1
     9     4    24    1
    10     4     5    2
    11     5     6    1
    12     6     7    1
    13     6    23    2
    14     7    22   ar
    15     7     8   ar
    16     8     9   ar
    17     8    31    1
    18     9    10   ar
    19     9    32    1
    20    10    11    1
    21    10    21   ar
    22    11    12   am
    23    11    33    1
    24    12    13    2
    25    12    14    1
    26    14    20   ar
    27    14    15   ar
    28    15    16   ar
    29    15    34    1
    30    16    17   ar
    31    16    35    1
    32    17    18   ar
    33    18    19    1
    34    18    20   ar
    35    19    36    1
    36    19    37    1
    37    19    38    1
    38    21    22   ar
    39    21    39    1
    40    22    40    1
    41    23    24    1
    42    23    41    1
    43    24    25    1
    44    25    26    2
    45    25    42    1
    46    26    43    1
@<TRIPOS>SUBSTRUCTURE
     1 ZINC000080099940        1 TEMP              0 ****  ****    0 ROOT


##########                                Name:    ZINC000541315701
##########                DOCK_Rotatable_Bonds:                   4
##########                         Heavy_Atoms:                  25
##########                    Molecular_Weight:             422.709
##########                DOCK_Rotatable_Bonds:                   4
##########                       Formal_Charge:           0.0300003
##########                     HBond_Acceptors:                   6
##########                        HBond_Donors:                   0
##########                         Heavy_Atoms:                  25
##########                          Grid_Score:          -25.908976
##########                     Grid_vdw_energy:          -24.874699
##########                      Grid_es_energy:           -1.034278
##########           Internal_energy_repulsive:           26.871111

@<TRIPOS>MOLECULE
ZINC000541315701
 42 44 1 0 0
SMALL
USER_CHARGES


@<TRIPOS>ATOM
      1 C1         -2.7108    3.0195   50.7508 C.3     1  ZINC000541315701    0.0800
      2 N2         -1.5603    2.5993   49.9471 N.am    1  ZINC000541315701   -0.5700
      3 C3         -1.7378    2.2056   48.6704 C.2     1  ZINC000541315701    0.5400
      4 O4         -2.8499    2.1992   48.1868 O.2     1  ZINC000541315701   -0.5000
      5 C5         -0.5542    1.7732   47.8438 C.3     1  ZINC000541315701   -0.1100
      6 H6          0.3230    2.3770   48.0765 H       1  ZINC000541315701    0.1300
      7 C7         -0.2594    0.2686   48.0440 C.3     1  ZINC000541315701   -0.1500
      8 C8         -1.0186   -0.4102   46.9253 C.2     1  ZINC000541315701    0.5200
      9 O9         -1.2818   -1.5934   46.8826 O.2     1  ZINC000541315701   -0.5200
     10 N10        -1.3593    0.4887   45.9859 N.am    1  ZINC000541315701   -0.6100
     11 C11        -2.1105    0.1688   44.7695 C.3     1  ZINC000541315701    0.0900
     12 C12        -0.8820    1.8329   46.3353 C.3     1  ZINC000541315701    0.1900
     13 H13        -1.6619    2.5708   46.1473 H       1  ZINC000541315701    0.1100
     14 C14         0.3550    2.1694   45.5432 C.ar    1  ZINC000541315701   -0.0900
     15 C15         0.6773    3.4900   45.2930 C.ar    1  ZINC000541315701   -0.1000
     16 C16         1.8124    3.7996   44.5667 C.ar    1  ZINC000541315701   -0.1000
     17 C17         2.6250    2.7886   44.0900 C.ar    1  ZINC000541315701   -0.1000
     18 C18         2.3030    1.4664   44.3403 C.ar    1  ZINC000541315701   -0.0300
     19 Cl19        3.3238    0.1958   43.7424 Cl      1  ZINC000541315701   -0.0600
     20 C20         1.1703    1.1574   45.0718 C.ar    1  ZINC000541315701   -0.0900
     21 C21        -0.2816    2.6065   50.5031 C.ar    1  ZINC000541315701    0.3800
     22 N22         0.3951    1.4739   50.6060 N.ar    1  ZINC000541315701   -0.4700
     23 C23         1.6074    1.4365   51.1253 C.ar    1  ZINC000541315701    0.1300
     24 C24         2.2177    2.5872   51.5834 C.ar    1  ZINC000541315701   -0.1600
     25 C25         1.5421    3.7968   51.4939 C.ar    1  ZINC000541315701   -0.0400
     26 C26         0.2737    3.8051   50.9395 C.ar    1  ZINC000541315701   -0.1300
     27 Br27       -0.6963    5.4214   50.7898 Br      1  ZINC000541315701   -0.0200
     28 H28        -3.5862    2.4365   50.4647 H       1  ZINC000541315701    0.0900
     29 H29        -2.4952    2.8569   51.8068 H       1  ZINC000541315701    0.0800
     30 H30        -2.9070    4.0778   50.5788 H       1  ZINC000541315701    0.0700
     31 H31         0.8092    0.0738   47.9529 H       1  ZINC000541315701    0.1200
     32 H32        -0.6280   -0.0666   49.0135 H       1  ZINC000541315701    0.1100
     33 H33        -2.3410   -0.8964   44.7544 H       1  ZINC000541315701    0.0900
     34 H34        -3.0379    0.7415   44.7539 H       1  ZINC000541315701    0.0700
     35 H35        -1.5116    0.4234   43.8951 H       1  ZINC000541315701    0.0600
     36 H36         0.0420    4.2804   45.6647 H       1  ZINC000541315701    0.1300
     37 H37         2.0636    4.8317   44.3715 H       1  ZINC000541315701    0.1400
     38 H38         3.5113    3.0305   43.5221 H       1  ZINC000541315701    0.1400
     39 H39         0.9185    0.1256   45.2674 H       1  ZINC000541315701    0.1400
     40 H40         2.1292    0.4933   51.1933 H       1  ZINC000541315701    0.1700
     41 H41         3.2103    2.5467   52.0072 H       1  ZINC000541315701    0.1500
     42 H42         1.9975    4.7110   51.8450 H       1  ZINC000541315701    0.1500
@<TRIPOS>BOND
     1     1     2    1
     2     1    28    1
     3     1    29    1
     4     1    30    1
     5     2     3   am
     6     2    21    1
     7     3     4    2
     8     3     5    1
     9     5     6    1
    10     5    12    1
    11     5     7    1
    12     7     8    1
    13     7    31    1
    14     7    32    1
    15     8     9    2
    16     8    10   am
    17    10    11    1
    18    10    12    1
    19    11    33    1
    20    11    34    1
    21    11    35    1
    22    12    13    1
    23    12    14    1
    24    14    20   ar
    25    14    15   ar
    26    15    16   ar
    27    15    36    1
    28    16    17   ar
    29    16    37    1
    30    17    18   ar
    31    17    38    1
    32    18    19    1
    33    18    20   ar
    34    20    39    1
    35    21    26   ar
    36    21    22   ar
    37    22    23   ar
    38    23    24   ar
    39    23    40    1
    40    24    25   ar
    41    24    41    1
    42    25    26   ar
    43    25    42    1
    44    26    27    1
@<TRIPOS>SUBSTRUCTURE
     1 ZINC000541315701        1 TEMP              0 ****  ****    0 ROOT


##########                                Name:    ZINC000845755710
##########                DOCK_Rotatable_Bonds:                   3
##########                         Heavy_Atoms:                  24
##########                    Molecular_Weight:             349.814
##########                DOCK_Rotatable_Bonds:                   3
##########                       Formal_Charge:         -0.00999974
##########                     HBond_Acceptors:                   6
##########                        HBond_Donors:                   0
##########                         Heavy_Atoms:                  24
##########                          Grid_Score:          -25.803375
##########                     Grid_vdw_energy:          -25.849421
##########                      Grid_es_energy:            0.046045
##########           Internal_energy_repulsive:           21.442511

@<TRIPOS>MOLECULE
ZINC000845755710
 44 47 1 0 0
SMALL
USER_CHARGES


@<TRIPOS>ATOM
      1 C1         -8.7046    2.3218   54.7450 C.3     1  ZINC000845755710   -0.1700
      2 C2         -8.8303    1.2472   53.6630 C.3     1  ZINC000845755710    0.2600
      3 C3         -7.9800    1.6356   52.4518 C.3     1  ZINC000845755710   -0.0900
      4 C4         -8.4285    3.0031   51.9314 C.3     1  ZINC000845755710   -0.1300
      5 C5         -7.5985    3.3730   50.6982 C.3     1  ZINC000845755710    0.1100
      6 N6         -6.1733    3.2980   51.0475 N.am    1  ZINC000845755710   -0.6000
      7 C7         -5.3566    4.3476   50.8287 C.2     1  ZINC000845755710    0.5900
      8 O8         -5.7976    5.3695   50.3376 O.2     1  ZINC000845755710   -0.5200
      9 C9         -3.9322    4.2574   51.1836 C.2     1  ZINC000845755710   -0.2200
     10 C10        -3.2886    4.9306   52.1755 C.2     1  ZINC000845755710    0.0600
     11 O11        -1.9956    4.5866   52.1936 O.3     1  ZINC000845755710   -0.1800
     12 C12        -1.7144    3.6825   51.2323 C.ar    1  ZINC000845755710    0.0500
     13 C13        -0.5467    3.0324   50.8529 C.ar    1  ZINC000845755710   -0.0900
     14 C14        -0.5656    2.1374   49.8043 C.ar    1  ZINC000845755710   -0.0800
     15 C15        -1.7433    1.8764   49.1187 C.ar    1  ZINC000845755710   -0.0400
     16 Cl16       -1.7455    0.7463   47.8008 Cl      1  ZINC000845755710   -0.0600
     17 C17        -2.9128    2.5124   49.4818 C.ar    1  ZINC000845755710   -0.0500
     18 C18        -2.9051    3.4127   50.5417 C.ar    1  ZINC000845755710   -0.0900
     19 C19        -5.6556    2.0575   51.6403 C.3     1  ZINC000845755710    0.1000
     20 C20        -6.5074    1.7023   52.8630 C.3     1  ZINC000845755710   -0.1300
     21 O21        -8.3790   -0.0153   54.1816 O.3     1  ZINC000845755710   -0.3700
     22 C22        -9.5831   -0.6836   54.6286 C.3     1  ZINC000845755710    0.0100
     23 C23       -10.6091   -0.2321   53.5593 C.3     1  ZINC000845755710    0.0200
     24 O24       -10.2025    1.1201   53.2676 O.3     1  ZINC000845755710   -0.3800
     25 H25        -9.3155    2.0453   55.6044 H       1  ZINC000845755710    0.0600
     26 H26        -7.6624    2.4074   55.0526 H       1  ZINC000845755710    0.0800
     27 H27        -9.0463    3.2780   54.3488 H       1  ZINC000845755710    0.0800
     28 H28        -8.1044    0.8898   51.6667 H       1  ZINC000845755710    0.0900
     29 H29        -9.4836    2.9612   51.6607 H       1  ZINC000845755710    0.0800
     30 H30        -8.2813    3.7540   52.7077 H       1  ZINC000845755710    0.0800
     31 H31        -7.8138    2.6742   49.8898 H       1  ZINC000845755710    0.0700
     32 H32        -7.8446    4.3869   50.3827 H       1  ZINC000845755710    0.1000
     33 H33        -3.7521    5.6374   52.8477 H       1  ZINC000845755710    0.2200
     34 H34         0.3759    3.2284   51.3791 H       1  ZINC000845755710    0.1500
     35 H35         0.3450    1.6349   49.5136 H       1  ZINC000845755710    0.1500
     36 H36        -3.8296    2.3095   48.9482 H       1  ZINC000845755710    0.1400
     37 H37        -5.7124    1.2514   50.9088 H       1  ZINC000845755710    0.0800
     38 H38        -4.6197    2.2033   51.9466 H       1  ZINC000845755710    0.0900
     39 H39        -6.3781    2.4654   53.6305 H       1  ZINC000845755710    0.0700
     40 H40        -6.1950    0.7346   53.2554 H       1  ZINC000845755710    0.0800
     41 H41        -9.4563   -1.7661   54.6152 H       1  ZINC000845755710    0.1100
     42 H42        -9.8756   -0.3387   55.6203 H       1  ZINC000845755710    0.0800
     43 H43       -10.5374   -0.8566   52.6688 H       1  ZINC000845755710    0.0800
     44 H44       -11.6209   -0.2512   53.9641 H       1  ZINC000845755710    0.1000
@<TRIPOS>BOND
     1     1     2    1
     2     1    25    1
     3     1    26    1
     4     1    27    1
     5     2    24    1
     6     2     3    1
     7     2    21    1
     8     3    20    1
     9     3     4    1
    10     3    28    1
    11     4     5    1
    12     4    29    1
    13     4    30    1
    14     5     6    1
    15     5    31    1
    16     5    32    1
    17     6     7   am
    18     6    19    1
    19     7     8    2
    20     7     9    1
    21     9    18    1
    22     9    10    2
    23    10    11    1
    24    10    33    1
    25    11    12    1
    26    12    18   ar
    27    12    13   ar
    28    13    14   ar
    29    13    34    1
    30    14    15   ar
    31    14    35    1
    32    15    16    1
    33    15    17   ar
    34    17    18   ar
    35    17    36    1
    36    19    20    1
    37    19    37    1
    38    19    38    1
    39    20    39    1
    40    20    40    1
    41    21    22    1
    42    22    23    1
    43    22    41    1
    44    22    42    1
    45    23    24    1
    46    23    43    1
    47    23    44    1
@<TRIPOS>SUBSTRUCTURE
     1 ZINC000845755710        1 TEMP              0 ****  ****    0 ROOT


##########                                Name:    ZINC000966038509
##########                DOCK_Rotatable_Bonds:                   5
##########                         Heavy_Atoms:                  25
##########                    Molecular_Weight:             346.445
##########                DOCK_Rotatable_Bonds:                   5
##########                       Formal_Charge:           0.0299998
##########                     HBond_Acceptors:                   5
##########                        HBond_Donors:                   1
##########                         Heavy_Atoms:                  25
##########                          Grid_Score:          -25.750568
##########                     Grid_vdw_energy:          -24.213501
##########                      Grid_es_energy:           -1.537067
##########           Internal_energy_repulsive:           17.804808

@<TRIPOS>MOLECULE
ZINC000966038509
 52 54 1 0 0
SMALL
USER_CHARGES


@<TRIPOS>ATOM
      1 C1         -2.1927    5.0989   52.1027 C.3     1  ZINC000966038509   -0.1200
      2 C2         -3.0916    4.0003   51.5966 C.ar    1  ZINC000966038509   -0.0100
      3 C3         -2.6943    3.2176   50.5340 C.ar    1  ZINC000966038509   -0.1600
      4 C4         -3.5207    2.2069   50.0670 C.ar    1  ZINC000966038509    0.1300
      5 F5         -3.1266    1.4429   49.0247 F       1  ZINC000966038509   -0.1300
      6 C6         -4.7497    1.9770   50.6661 C.ar    1  ZINC000966038509   -0.1600
      7 C7         -5.1569    2.7538   51.7295 C.ar    1  ZINC000966038509   -0.0100
      8 C8         -6.4933    2.5032   52.3794 C.3     1  ZINC000966038509   -0.1200
      9 C9         -4.3262    3.7697   52.2072 C.ar    1  ZINC000966038509   -0.1500
     10 C10        -4.7573    4.6054   53.3465 C.2     1  ZINC000966038509    0.5700
     11 O11        -5.3967    5.6202   53.1484 O.2     1  ZINC000966038509   -0.5200
     12 N12        -4.4418    4.2428   54.6057 N.am    1  ZINC000966038509   -0.7100
     13 C13        -4.8707    5.0707   55.7356 C.3     1  ZINC000966038509    0.1300
     14 H14        -4.5952    6.1137   55.5799 H       1  ZINC000966038509    0.1200
     15 C15        -6.3938    4.9294   55.9808 C.3     1  ZINC000966038509    0.0900
     16 N16        -6.5380    3.6794   56.7492 N.am    1  ZINC000966038509   -0.6200
     17 C17        -7.6454    2.9130   56.8018 C.2     1  ZINC000966038509    0.5400
     18 O18        -8.6364    3.2361   56.1817 O.2     1  ZINC000966038509   -0.5300
     19 C19        -7.6522    1.6548   57.6310 C.3     1  ZINC000966038509   -0.1100
     20 C20        -7.9034    1.9896   59.1223 C.3     1  ZINC000966038509   -0.1100
     21 C21        -8.4720    0.6612   59.6799 C.3     1  ZINC000966038509   -0.1200
     22 C22        -9.3648    0.1246   58.5419 C.3     1  ZINC000966038509   -0.1200
     23 C23        -8.8435    0.7563   57.2392 C.3     1  ZINC000966038509   -0.1100
     24 C24        -5.2734    3.4070   57.4479 C.3     1  ZINC000966038509    0.1000
     25 C25        -4.2884    4.5349   57.0703 C.3     1  ZINC000966038509   -0.1100
     26 H26        -4.2859    5.3154   57.8312 H       1  ZINC000966038509    0.1000
     27 C27        -2.8788    3.9765   56.8657 C.3     1  ZINC000966038509   -0.1400
     28 H28        -1.5317    4.7015   52.8731 H       1  ZINC000966038509    0.0800
     29 H29        -1.5962    5.4892   51.2780 H       1  ZINC000966038509    0.0800
     30 H30        -2.7999    5.9005   52.5231 H       1  ZINC000966038509    0.0700
     31 H31        -1.7378    3.3922   50.0638 H       1  ZINC000966038509    0.1400
     32 H32        -5.3895    1.1883   50.2988 H       1  ZINC000966038509    0.1400
     33 H33        -6.3746    1.7817   53.1877 H       1  ZINC000966038509    0.0800
     34 H34        -6.8829    3.4385   52.7814 H       1  ZINC000966038509    0.0700
     35 H35        -7.1890    2.1083   51.6390 H       1  ZINC000966038509    0.0800
     36 H36        -3.9305    3.4338   54.7637 H       1  ZINC000966038509    0.4000
     37 H37        -6.7650    5.7753   56.5592 H       1  ZINC000966038509    0.0800
     38 H38        -6.9254    4.8549   55.0322 H       1  ZINC000966038509    0.0800
     39 H39        -6.7124    1.1155   57.5122 H       1  ZINC000966038509    0.0900
     40 H40        -6.9705    2.2505   59.6221 H       1  ZINC000966038509    0.0700
     41 H41        -8.6330    2.7935   59.2201 H       1  ZINC000966038509    0.0700
     42 H42        -7.6649   -0.0393   59.8941 H       1  ZINC000966038509    0.0700
     43 H43        -9.0655    0.8463   60.5753 H       1  ZINC000966038509    0.0700
     44 H44        -9.2877   -0.9612   58.4873 H       1  ZINC000966038509    0.0700
     45 H45       -10.4011    0.4178   58.7104 H       1  ZINC000966038509    0.0700
     46 H46        -9.6268    1.3561   56.7756 H       1  ZINC000966038509    0.0800
     47 H47        -8.5134   -0.0229   56.5524 H       1  ZINC000966038509    0.0700
     48 H48        -5.4383    3.4043   58.5253 H       1  ZINC000966038509    0.0800
     49 H49        -4.8740    2.4442   57.1295 H       1  ZINC000966038509    0.0700
     50 H50        -2.8980    3.2200   56.0812 H       1  ZINC000966038509    0.0600
     51 H51        -2.2068    4.7841   56.5752 H       1  ZINC000966038509    0.0700
     52 H52        -2.5273    3.5278   57.7947 H       1  ZINC000966038509    0.0700
@<TRIPOS>BOND
     1     1     2    1
     2     1    28    1
     3     1    29    1
     4     1    30    1
     5     2     9   ar
     6     2     3   ar
     7     3     4   ar
     8     3    31    1
     9     4     5    1
    10     4     6   ar
    11     6     7   ar
    12     6    32    1
    13     7     8    1
    14     7     9   ar
    15     8    33    1
    16     8    34    1
    17     8    35    1
    18     9    10    1
    19    10    11    2
    20    10    12   am
    21    12    13    1
    22    12    36    1
    23    13    14    1
    24    13    25    1
    25    13    15    1
    26    15    16    1
    27    15    37    1
    28    15    38    1
    29    16    17   am
    30    16    24    1
    31    17    18    2
    32    17    19    1
    33    19    23    1
    34    19    20    1
    35    19    39    1
    36    20    21    1
    37    20    40    1
    38    20    41    1
    39    21    22    1
    40    21    42    1
    41    21    43    1
    42    22    23    1
    43    22    44    1
    44    22    45    1
    45    23    46    1
    46    23    47    1
    47    24    25    1
    48    24    48    1
    49    24    49    1
    50    25    26    1
    51    25    27    1
    52    27    50    1
    53    27    51    1
    54    27    52    1
@<TRIPOS>SUBSTRUCTURE
     1 ZINC000966038509        1 TEMP              0 ****  ****    0 ROOT


##########                                Name:    ZINC001179023006
##########                DOCK_Rotatable_Bonds:                   3
##########                         Heavy_Atoms:                  25
##########                    Molecular_Weight:             340.465
##########                DOCK_Rotatable_Bonds:                   3
##########                       Formal_Charge:          -0.0100005
##########                     HBond_Acceptors:                   4
##########                        HBond_Donors:                   1
##########                         Heavy_Atoms:                  25
##########                          Grid_Score:          -25.640793
##########                     Grid_vdw_energy:          -24.879677
##########                      Grid_es_energy:           -0.761115
##########           Internal_energy_repulsive:           44.206989

@<TRIPOS>MOLECULE
ZINC001179023006
 53 56 1 0 0
SMALL
USER_CHARGES


@<TRIPOS>ATOM
      1 C1         -5.5066    2.4752   50.7355 C.3     1  ZINC001179023006   -0.1500
      2 C2         -4.1938    2.2718   51.4943 C.3     1  ZINC001179023006   -0.1100
      3 C3         -3.5139    3.6254   51.7090 C.3     1  ZINC001179023006   -0.1100
      4 C4         -2.0136    3.5184   51.8023 C.2     1  ZINC001179023006    0.5400
      5 O5         -1.4581    3.6939   52.8661 O.2     1  ZINC001179023006   -0.5400
      6 N6         -1.2890    3.2276   50.7037 N.am    1  ZINC001179023006   -0.5900
      7 C7         -1.9471    3.0062   49.4091 C.3     1  ZINC001179023006    0.1000
      8 C8         -1.4925    1.6634   48.8417 C.3     1  ZINC001179023006   -0.1200
      9 C9          0.0412    1.6361   48.7700 C.3     1  ZINC001179023006   -0.0500
     10 C10         0.6002    1.7698   50.1943 C.3     1  ZINC001179023006   -0.1100
     11 C11         0.1743    3.1197   50.7780 C.3     1  ZINC001179023006    0.0900
     12 C12         0.4875    0.3050   48.1861 C.3     1  ZINC001179023006   -0.0800
     13 C13        -0.1196    0.0606   46.8385 C.ar    1  ZINC001179023006   -0.0700
     14 C14        -1.1257   -0.8936   46.7257 C.ar    1  ZINC001179023006   -0.1100
     15 C15        -1.7486   -1.0979   45.5102 C.ar    1  ZINC001179023006   -0.1100
     16 C16        -1.3754   -0.3587   44.4035 C.ar    1  ZINC001179023006   -0.1200
     17 C17        -0.3647    0.5795   44.5154 C.ar    1  ZINC001179023006   -0.1000
     18 C18         0.2581    0.7686   45.7363 C.ar    1  ZINC001179023006   -0.1100
     19 C19         1.3791    1.7691   45.8573 C.3     1  ZINC001179023006    0.1400
     20 N20         1.0312    2.8540   46.7478 N.am    1  ZINC001179023006   -0.7000
     21 C21         0.5143    2.7932   47.9480 C.2     1  ZINC001179023006    0.5200
     22 O22         0.3969    3.8702   48.4931 O.2     1  ZINC001179023006   -0.5500
     23 C23        -4.1434    4.4591   52.8375 C.3     1  ZINC001179023006   -0.1200
     24 C24        -3.9480    5.6874   51.9302 C.3     1  ZINC001179023006   -0.1400
     25 C25        -3.9943    4.7170   50.7381 C.3     1  ZINC001179023006   -0.1300
     26 H26        -6.0098    1.5157   50.6161 H       1  ZINC001179023006    0.0600
     27 H27        -6.1486    3.1549   51.2958 H       1  ZINC001179023006    0.0500
     28 H28        -5.2968    2.9000   49.7537 H       1  ZINC001179023006    0.0600
     29 H29        -3.5365    1.6227   50.9157 H       1  ZINC001179023006    0.0700
     30 H30        -4.4002    1.8116   52.4606 H       1  ZINC001179023006    0.0700
     31 H31        -3.0284    2.9960   49.5460 H       1  ZINC001179023006    0.0900
     32 H32        -1.6721    3.8033   48.7183 H       1  ZINC001179023006    0.0800
     33 H33        -1.9062    1.5304   47.8421 H       1  ZINC001179023006    0.0800
     34 H34        -1.8411    0.8594   49.4900 H       1  ZINC001179023006    0.0800
     35 H35         1.6883    1.7127   50.1653 H       1  ZINC001179023006    0.0800
     36 H36         0.2098    0.9646   50.8166 H       1  ZINC001179023006    0.0800
     37 H37         0.6297    3.9262   50.2033 H       1  ZINC001179023006    0.1200
     38 H38         0.4931    3.1848   51.8183 H       1  ZINC001179023006    0.0800
     39 H39         1.5736    0.3041   48.0922 H       1  ZINC001179023006    0.0800
     40 H40         0.1897   -0.4973   48.8611 H       1  ZINC001179023006    0.0900
     41 H41        -1.4196   -1.4737   47.5880 H       1  ZINC001179023006    0.1200
     42 H42        -2.5300   -1.8383   45.4241 H       1  ZINC001179023006    0.1200
     43 H43        -1.8705   -0.5127   43.4561 H       1  ZINC001179023006    0.1300
     44 H44        -0.0639    1.1599   43.6558 H       1  ZINC001179023006    0.1300
     45 H45         1.6010    2.1759   44.8707 H       1  ZINC001179023006    0.0900
     46 H46         2.2663    1.2648   46.2405 H       1  ZINC001179023006    0.0800
     47 H47         1.2039    3.7466   46.4096 H       1  ZINC001179023006    0.4000
     48 H48        -5.1893    4.2181   53.0270 H       1  ZINC001179023006    0.0900
     49 H49        -3.5429    4.4869   53.7468 H       1  ZINC001179023006    0.0800
     50 H50        -2.9816    6.1746   52.0593 H       1  ZINC001179023006    0.0800
     51 H51        -4.7822    6.3885   51.9550 H       1  ZINC001179023006    0.0700
     52 H52        -3.2737    4.9528   49.9549 H       1  ZINC001179023006    0.0700
     53 H53        -4.9995    4.5467   50.3524 H       1  ZINC001179023006    0.0900
@<TRIPOS>BOND
     1     1     2    1
     2     1    26    1
     3     1    27    1
     4     1    28    1
     5     2     3    1
     6     2    29    1
     7     2    30    1
     8     3    25    1
     9     3     4    1
    10     3    23    1
    11     4     5    2
    12     4     6   am
    13     6    11    1
    14     6     7    1
    15     7     8    1
    16     7    31    1
    17     7    32    1
    18     8     9    1
    19     8    33    1
    20     8    34    1
    21     9    21    1
    22     9    10    1
    23     9    12    1
    24    10    11    1
    25    10    35    1
    26    10    36    1
    27    11    37    1
    28    11    38    1
    29    12    13    1
    30    12    39    1
    31    12    40    1
    32    13    18   ar
    33    13    14   ar
    34    14    15   ar
    35    14    41    1
    36    15    16   ar
    37    15    42    1
    38    16    17   ar
    39    16    43    1
    40    17    18   ar
    41    17    44    1
    42    18    19    1
    43    19    20    1
    44    19    45    1
    45    19    46    1
    46    20    21   am
    47    20    47    1
    48    21    22    2
    49    23    24    1
    50    23    48    1
    51    23    49    1
    52    24    25    1
    53    24    50    1
    54    24    51    1
    55    25    52    1
    56    25    53    1
@<TRIPOS>SUBSTRUCTURE
     1 ZINC001179023006        1 TEMP              0 ****  ****    0 ROOT


##########                                Name:    ZINC000820901229
##########                DOCK_Rotatable_Bonds:                   3
##########                         Heavy_Atoms:                  18
##########                    Molecular_Weight:             331.233
##########                DOCK_Rotatable_Bonds:                   3
##########                       Formal_Charge:           0.0099999
##########                     HBond_Acceptors:                   5
##########                        HBond_Donors:                   1
##########                         Heavy_Atoms:                  18
##########                          Grid_Score:          -25.639282
##########                     Grid_vdw_energy:          -24.431372
##########                      Grid_es_energy:           -1.207910
##########           Internal_energy_repulsive:            3.046635

@<TRIPOS>MOLECULE
ZINC000820901229
 33 35 1 0 0
SMALL
USER_CHARGES


@<TRIPOS>ATOM
      1 O1         -1.1097    3.5390   48.9438 O.2     1  ZINC000820901229   -0.5300
      2 C2         -1.4620    2.4346   49.3122 C.2     1  ZINC000820901229    0.6000
      3 N3         -2.5413    2.3022   50.1085 N.am    1  ZINC000820901229   -0.7100
      4 C4         -3.2868    3.4890   50.5351 C.3     1  ZINC000820901229    0.1600
      5 H5         -3.3915    4.1811   49.6996 H       1  ZINC000820901229    0.1000
      6 C6         -2.5524    4.1783   51.6964 C.3     1  ZINC000820901229   -0.1300
      7 C7         -3.3310    5.3848   52.2123 C.3     1  ZINC000820901229   -0.1100
      8 C8         -4.7676    5.0003   52.6029 C.3     1  ZINC000820901229   -0.1100
      9 C9         -5.4216    4.3941   51.3784 C.3     1  ZINC000820901229    0.0800
     10 H10        -5.3438    5.0864   50.5400 H       1  ZINC000820901229    0.0700
     11 O11        -6.7653    3.9424   51.5039 O.3     1  ZINC000820901229   -0.3700
     12 C12        -6.9738    3.0498   50.3798 C.3     1  ZINC000820901229    0.0500
     13 C13        -5.5892    2.4634   50.0008 C.3     1  ZINC000820901229   -0.1500
     14 C14        -4.6584    3.0823   51.0442 C.3     1  ZINC000820901229   -0.1400
     15 H15        -4.5756    2.4390   51.9202 H       1  ZINC000820901229    0.0900
     16 C16        -0.7127    1.2416   48.8834 C.2     1  ZINC000820901229    0.0100
     17 C17        -1.1180   -0.0203   49.1485 C.2     1  ZINC000820901229   -0.2200
     18 S18         0.0159   -1.1152   48.4871 S.3     1  ZINC000820901229    0.3100
     19 C19         0.9662    0.1740   47.8945 C.2     1  ZINC000820901229   -0.0100
     20 Br20        2.5794   -0.0320   46.9295 Br      1  ZINC000820901229    0.0700
     21 N21         0.4283    1.3055   48.1909 N.2     1  ZINC000820901229   -0.4100
     22 H22        -2.8245    1.4212   50.3989 H       1  ZINC000820901229    0.4100
     23 H23        -2.4223    3.4641   52.5095 H       1  ZINC000820901229    0.0700
     24 H24        -1.5719    4.5074   51.3526 H       1  ZINC000820901229    0.0700
     25 H25        -2.8208    5.7915   53.0854 H       1  ZINC000820901229    0.0800
     26 H26        -3.3650    6.1467   51.4336 H       1  ZINC000820901229    0.0700
     27 H27        -4.7489    4.2707   53.4126 H       1  ZINC000820901229    0.0700
     28 H28        -5.3171    5.8883   52.9153 H       1  ZINC000820901229    0.0800
     29 H29        -7.6520    2.2456   50.6652 H       1  ZINC000820901229    0.0900
     30 H30        -7.3855    3.6044   49.5367 H       1  ZINC000820901229    0.0600
     31 H31        -5.5938    1.3769   50.0885 H       1  ZINC000820901229    0.0800
     32 H32        -5.3042    2.7683   48.9938 H       1  ZINC000820901229    0.0800
     33 H33        -2.0119   -0.2923   49.6903 H       1  ZINC000820901229    0.2000
@<TRIPOS>BOND
     1     1     2    2
     2     2     3   am
     3     2    16    1
     4     3     4    1
     5     3    22    1
     6     4     5    1
     7     4    14    1
     8     4     6    1
     9     6     7    1
    10     6    23    1
    11     6    24    1
    12     7     8    1
    13     7    25    1
    14     7    26    1
    15     8     9    1
    16     8    27    1
    17     8    28    1
    18     9    10    1
    19     9    14    1
    20     9    11    1
    21    11    12    1
    22    12    13    1
    23    12    29    1
    24    12    30    1
    25    13    14    1
    26    13    31    1
    27    13    32    1
    28    14    15    1
    29    16    21    1
    30    16    17    2
    31    17    18    1
    32    17    33    1
    33    18    19    1
    34    19    20    1
    35    19    21    2
@<TRIPOS>SUBSTRUCTURE
     1 ZINC000820901229        1 TEMP              0 ****  ****    0 ROOT


##########                                Name:    ZINC000793092912
##########                DOCK_Rotatable_Bonds:                   4
##########                         Heavy_Atoms:                  26
##########                    Molecular_Weight:               407.2
##########                DOCK_Rotatable_Bonds:                   4
##########                       Formal_Charge:         2.90573e-07
##########                     HBond_Acceptors:                  10
##########                        HBond_Donors:                   1
##########                         Heavy_Atoms:                  26
##########                          Grid_Score:          -25.488670
##########                     Grid_vdw_energy:          -26.711119
##########                      Grid_es_energy:            1.222449
##########           Internal_energy_repulsive:           10.883939

@<TRIPOS>MOLECULE
ZINC000793092912
 40 43 1 0 0
SMALL
USER_CHARGES


@<TRIPOS>ATOM
      1 C1          2.7066    3.0941   44.2258 C.3     1  ZINC000793092912   -0.1300
      2 C2          1.7909    2.1974   45.0615 C.3     1  ZINC000793092912   -0.0800
      3 C3          1.2084    2.8479   46.3068 C.3     1  ZINC000793092912   -0.1100
      4 C4         -0.2971    2.6828   46.3968 C.3     1  ZINC000793092912    0.1100
      5 N5         -0.7226    1.3493   46.0066 N.am    1  ZINC000793092912   -0.5700
      6 C6         -1.4543    0.6213   46.8732 C.2     1  ZINC000793092912    0.5100
      7 O7         -1.8212   -0.4949   46.5695 O.2     1  ZINC000793092912   -0.5100
      8 C8         -1.8139    1.1883   48.2071 C.2     1  ZINC000793092912    0.5100
      9 O9         -1.2009    0.8459   49.1973 O.2     1  ZINC000793092912   -0.4900
     10 N10        -2.8190    2.0800   48.3116 N.am    1  ZINC000793092912   -0.6400
     11 C11        -3.1557    2.6110   49.5609 C.ar    1  ZINC000793092912    0.1600
     12 C12        -2.3426    3.5704   50.1499 C.ar    1  ZINC000793092912   -0.1200
     13 C13        -2.6740    4.0958   51.3842 C.ar    1  ZINC000793092912   -0.0600
     14 C14        -3.8177    3.6668   52.0380 C.ar    1  ZINC000793092912    0.0200
     15 O15        -4.3571    4.0201   53.2420 O.3     1  ZINC000793092912   -0.2800
     16 C16        -5.7231    3.5672   53.1989 C.3     1  ZINC000793092912    0.5700
     17 F17        -6.1423    3.1482   54.4661 F       1  ZINC000793092912   -0.1100
     18 F18        -6.5609    4.5775   52.7147 F       1  ZINC000793092912   -0.1500
     19 O19        -5.6864    2.4552   52.2850 O.3     1  ZINC000793092912   -0.2800
     20 C20        -4.6357    2.7042   51.4497 C.ar    1  ZINC000793092912    0.0500
     21 C21        -4.3066    2.1828   50.2105 C.ar    1  ZINC000793092912   -0.0900
     22 C22        -0.3874    0.7719   44.7136 C.3     1  ZINC000793092912    0.1100
     23 C23         1.0481    1.0945   44.3259 C.3     1  ZINC000793092912   -0.1200
     24 H24         1.2520    1.0398   43.2565 H       1  ZINC000793092912    0.1400
     25 C25         2.2194    0.7293   45.2251 C.3     1  ZINC000793092912    0.0000
     26 Cl26        3.7468    0.1958   44.4293 Cl      1  ZINC000793092912   -0.0800
     27 Cl27        1.8452   -0.0604   46.8023 Cl      1  ZINC000793092912   -0.0900
     28 H28         2.1196    3.5978   43.4578 H       1  ZINC000793092912    0.0800
     29 H29         3.1747    3.8375   44.8712 H       1  ZINC000793092912    0.0700
     30 H30         3.4778    2.4860   43.7532 H       1  ZINC000793092912    0.0700
     31 H31         1.6660    2.3971   47.1873 H       1  ZINC000793092912    0.0900
     32 H32         1.4464    3.9116   46.2934 H       1  ZINC000793092912    0.1000
     33 H33        -0.6134    2.8697   47.4230 H       1  ZINC000793092912    0.1100
     34 H34        -0.7735    3.4127   45.7422 H       1  ZINC000793092912    0.0800
     35 H35        -3.3089    2.3536   47.5204 H       1  ZINC000793092912    0.4300
     36 H36        -1.4500    3.9060   49.6428 H       1  ZINC000793092912    0.1500
     37 H37        -2.0402    4.8419   51.8402 H       1  ZINC000793092912    0.1500
     38 H38        -4.9423    1.4408   49.7504 H       1  ZINC000793092912    0.1600
     39 H39        -0.4931   -0.3115   44.7682 H       1  ZINC000793092912    0.1400
     40 H40        -1.0742    1.1591   43.9609 H       1  ZINC000793092912    0.1000
@<TRIPOS>BOND
     1     1     2    1
     2     1    28    1
     3     1    29    1
     4     1    30    1
     5     2    23    1
     6     2    25    1
     7     2     3    1
     8     3     4    1
     9     3    31    1
    10     3    32    1
    11     4     5    1
    12     4    33    1
    13     4    34    1
    14     5     6   am
    15     5    22    1
    16     6     7    2
    17     6     8    1
    18     8     9    2
    19     8    10   am
    20    10    11    1
    21    10    35    1
    22    11    21   ar
    23    11    12   ar
    24    12    13   ar
    25    12    36    1
    26    13    14   ar
    27    13    37    1
    28    14    20   ar
    29    14    15    1
    30    15    16    1
    31    16    17    1
    32    16    18    1
    33    16    19    1
    34    19    20    1
    35    20    21   ar
    36    21    38    1
    37    22    23    1
    38    22    39    1
    39    22    40    1
    40    23    24    1
    41    23    25    1
    42    25    26    1
    43    25    27    1
@<TRIPOS>SUBSTRUCTURE
     1 ZINC000793092912        1 TEMP              0 ****  ****    0 ROOT


##########                                Name:    ZINC000828026236
##########                DOCK_Rotatable_Bonds:                   1
##########                         Heavy_Atoms:                  19
##########                    Molecular_Weight:             383.045
##########                DOCK_Rotatable_Bonds:                   1
##########                       Formal_Charge:                   0
##########                     HBond_Acceptors:                   5
##########                        HBond_Donors:                   0
##########                         Heavy_Atoms:                  19
##########                          Grid_Score:          -25.227757
##########                     Grid_vdw_energy:          -24.900740
##########                      Grid_es_energy:           -0.327018
##########           Internal_energy_repulsive:            4.542452

@<TRIPOS>MOLECULE
ZINC000828026236
 28 30 1 0 0
SMALL
USER_CHARGES


@<TRIPOS>ATOM
      1 N1         -5.0906    3.1250   49.9148 N.1     1  ZINC000828026236   -0.3800
      2 C2         -4.1362    3.2712   50.5132 C.1     1  ZINC000828026236    0.2600
      3 C3         -2.9330    3.4556   51.2675 C.ar    1  ZINC000828026236   -0.0500
      4 C4         -2.9861    3.8629   52.6052 C.ar    1  ZINC000828026236    0.0100
      5 C5         -1.7940    4.0269   53.2907 C.ar    1  ZINC000828026236   -0.1600
      6 Br6        -1.8032    4.5751   55.1004 Br      1  ZINC000828026236   -0.0100
      7 C7         -0.5962    3.7860   52.6413 C.ar    1  ZINC000828026236    0.1800
      8 N8         -0.5679    3.4024   51.3793 N.ar    1  ZINC000828026236   -0.5000
      9 C9         -1.6771    3.2249   50.6796 C.ar    1  ZINC000828026236    0.3600
     10 N10        -1.5997    2.8216   49.3575 N.3     1  ZINC000828026236   -0.4900
     11 C11        -1.8546    1.3796   49.2309 C.3     1  ZINC000828026236    0.0500
     12 C12        -2.1306    1.0310   47.7627 C.3     1  ZINC000828026236    0.1100
     13 N13        -1.0694    1.6227   46.9437 N.pl3   1  ZINC000828026236   -0.4400
     14 C14        -0.7280    1.3367   45.6582 C.2     1  ZINC000828026236   -0.0300
     15 Br15       -1.5491    0.0620   44.5283 Br      1  ZINC000828026236    0.0200
     16 C16         0.3112    2.1404   45.3464 C.2     1  ZINC000828026236    0.0300
     17 N17         0.5912    2.8965   46.4216 N.2     1  ZINC000828026236   -0.4700
     18 C18        -0.2300    2.5952   47.3815 C.2     1  ZINC000828026236    0.2300
     19 C19        -0.2990    3.1859   48.7696 C.3     1  ZINC000828026236    0.1500
     20 H20        -3.9334    4.0455   53.0909 H       1  ZINC000828026236    0.1600
     21 H21         0.3326    3.9145   53.1772 H       1  ZINC000828026236    0.1800
     22 H22        -0.9824    0.8253   49.5776 H       1  ZINC000828026236    0.0700
     23 H23        -2.7196    1.1096   49.8366 H       1  ZINC000828026236    0.1100
     24 H24        -2.1324   -0.0516   47.6359 H       1  ZINC000828026236    0.1100
     25 H25        -3.0963    1.4383   47.4633 H       1  ZINC000828026236    0.1000
     26 H26         0.8277    2.1703   44.3984 H       1  ZINC000828026236    0.1800
     27 H27        -0.2118    4.2710   48.7126 H       1  ZINC000828026236    0.1200
     28 H28         0.5077    2.7828   49.3818 H       1  ZINC000828026236    0.1000
@<TRIPOS>BOND
     1     1     2    3
     2     2     3    1
     3     3     9   ar
     4     3     4   ar
     5     4     5   ar
     6     4    20    1
     7     5     6    1
     8     5     7   ar
     9     7     8   ar
    10     7    21    1
    11     8     9   ar
    12     9    10    1
    13    10    19    1
    14    10    11    1
    15    11    12    1
    16    11    22    1
    17    11    23    1
    18    12    13    1
    19    12    24    1
    20    12    25    1
    21    13    18    1
    22    13    14    1
    23    14    15    1
    24    14    16    2
    25    16    17    1
    26    16    26    1
    27    17    18    2
    28    18    19    1
    29    19    27    1
    30    19    28    1
@<TRIPOS>SUBSTRUCTURE
     1 ZINC000828026236        1 TEMP              0 ****  ****    0 ROOT


##########                                Name:    ZINC000364058410
##########                DOCK_Rotatable_Bonds:                   5
##########                         Heavy_Atoms:                  25
##########                    Molecular_Weight:             358.464
##########                DOCK_Rotatable_Bonds:                   5
##########                       Formal_Charge:           0.0100002
##########                     HBond_Acceptors:                   7
##########                        HBond_Donors:                   0
##########                         Heavy_Atoms:                  25
##########                          Grid_Score:          -25.204584
##########                     Grid_vdw_energy:          -24.267252
##########                      Grid_es_energy:           -0.937333
##########           Internal_energy_repulsive:           62.701984

@<TRIPOS>MOLECULE
ZINC000364058410
 47 50 1 0 0
SMALL
USER_CHARGES


@<TRIPOS>ATOM
      1 C1          1.8824    0.3241   41.5501 C.3     1  ZINC000364058410   -0.0700
      2 C2          0.6502    0.0984   42.3879 C.2     1  ZINC000364058410   -0.2500
      3 C3          0.5260    0.3642   43.7088 C.2     1  ZINC000364058410    0.0800
      4 N4         -0.7255    0.0232   44.0811 N.pl3   1  ZINC000364058410   -0.3600
      5 C5         -1.2875    0.1459   45.4284 C.3     1  ZINC000364058410    0.1300
      6 C6         -0.2493    0.5217   46.5012 C.3     1  ZINC000364058410    0.1100
      7 N7         -0.5973    1.9246   46.2034 N.am    1  ZINC000364058410   -0.6500
      8 C8          0.0425    3.1039   46.3305 C.2     1  ZINC000364058410    0.5600
      9 O9         -0.5074    4.1313   45.9944 O.2     1  ZINC000364058410   -0.5000
     10 C10         1.4411    3.1460   46.8899 C.3     1  ZINC000364058410    0.1400
     11 H11         1.9132    2.1711   46.7675 H       1  ZINC000364058410    0.0900
     12 C12         2.2588    4.2090   46.1492 C.3     1  ZINC000364058410   -0.1200
     13 C13         3.6316    4.3443   46.8119 C.3     1  ZINC000364058410   -0.1200
     14 C14         3.4567    4.7945   48.2641 C.3     1  ZINC000364058410   -0.1400
     15 C15         2.6527    3.7381   49.0287 C.3     1  ZINC000364058410    0.1000
     16 N16         1.3908    3.4933   48.3166 N.am    1  ZINC000364058410   -0.6000
     17 C17         0.2098    3.5904   48.9589 C.2     1  ZINC000364058410    0.5900
     18 O18        -0.8283    3.3852   48.3579 O.2     1  ZINC000364058410   -0.4900
     19 C19         0.1759    3.9433   50.3812 C.2     1  ZINC000364058410   -0.2600
     20 C20        -0.2703    5.1290   50.8933 C.2     1  ZINC000364058410   -0.0600
     21 C21        -0.1901    5.1936   52.2641 C.2     1  ZINC000364058410   -0.1400
     22 C22         0.3043    4.1000   52.8561 C.2     1  ZINC000364058410   -0.2400
     23 S23         0.6957    2.9058   51.7021 S.3     1  ZINC000364058410    0.2100
     24 C24        -1.9275    1.5174   45.7105 C.3     1  ZINC000364058410    0.0900
     25 N25        -1.3924   -0.4684   42.9516 N.2     1  ZINC000364058410   -0.3000
     26 C26        -0.5689   -0.4172   41.9361 C.2     1  ZINC000364058410    0.0500
     27 H27         1.8574    1.3298   41.1306 H       1  ZINC000364058410    0.0600
     28 H28         2.7704    0.2119   42.1723 H       1  ZINC000364058410    0.0600
     29 H29         1.9108   -0.4063   40.7414 H       1  ZINC000364058410    0.0600
     30 H30         1.2914    0.7755   44.3503 H       1  ZINC000364058410    0.1700
     31 H31        -1.9196   -0.6983   45.7037 H       1  ZINC000364058410    0.1300
     32 H32        -0.5233    0.2052   47.5077 H       1  ZINC000364058410    0.1100
     33 H33         0.7738    0.2567   46.2344 H       1  ZINC000364058410    0.0900
     34 H34         2.3850    3.9109   45.1084 H       1  ZINC000364058410    0.0800
     35 H35         1.7375    5.1652   46.1937 H       1  ZINC000364058410    0.0800
     36 H36         4.1423    3.3816   46.7891 H       1  ZINC000364058410    0.0700
     37 H37         4.2244    5.0824   46.2717 H       1  ZINC000364058410    0.0800
     38 H38         4.4357    4.9131   48.7286 H       1  ZINC000364058410    0.0800
     39 H39         2.9242    5.7452   48.2886 H       1  ZINC000364058410    0.0700
     40 H40         3.2249    2.8120   49.0829 H       1  ZINC000364058410    0.0800
     41 H41         2.4406    4.0984   50.0353 H       1  ZINC000364058410    0.0900
     42 H42        -0.6479    5.9353   50.2819 H       1  ZINC000364058410    0.1500
     43 H43        -0.5028    6.0636   52.8225 H       1  ZINC000364058410    0.1500
     44 H44         0.4343    3.9869   53.9223 H       1  ZINC000364058410    0.1700
     45 H45        -2.2444    2.0474   44.8123 H       1  ZINC000364058410    0.0900
     46 H46        -2.6945    1.4934   46.4847 H       1  ZINC000364058410    0.1100
     47 H47        -0.7899   -0.7268   40.9254 H       1  ZINC000364058410    0.1800
@<TRIPOS>BOND
     1     1     2    1
     2     1    27    1
     3     1    28    1
     4     1    29    1
     5     2    26    1
     6     2     3    2
     7     3     4    1
     8     3    30    1
     9     4     5    1
    10     4    25    1
    11     5    24    1
    12     5     6    1
    13     5    31    1
    14     6     7    1
    15     6    32    1
    16     6    33    1
    17     7     8   am
    18     7    24    1
    19     8     9    2
    20     8    10    1
    21    10    11    1
    22    10    16    1
    23    10    12    1
    24    12    13    1
    25    12    34    1
    26    12    35    1
    27    13    14    1
    28    13    36    1
    29    13    37    1
    30    14    15    1
    31    14    38    1
    32    14    39    1
    33    15    16    1
    34    15    40    1
    35    15    41    1
    36    16    17   am
    37    17    18    2
    38    17    19    1
    39    19    23    1
    40    19    20    2
    41    20    21    1
    42    20    42    1
    43    21    22    2
    44    21    43    1
    45    22    23    1
    46    22    44    1
    47    24    45    1
    48    24    46    1
    49    25    26    2
    50    26    47    1
@<TRIPOS>SUBSTRUCTURE
     1 ZINC000364058410        1 TEMP              0 ****  ****    0 ROOT


##########                                Name:    ZINC000656860804
##########                DOCK_Rotatable_Bonds:                   2
##########                         Heavy_Atoms:                  19
##########                    Molecular_Weight:             388.068
##########                DOCK_Rotatable_Bonds:                   2
##########                       Formal_Charge:          8.9407e-08
##########                     HBond_Acceptors:                   8
##########                        HBond_Donors:                   1
##########                         Heavy_Atoms:                  19
##########                          Grid_Score:          -25.186760
##########                     Grid_vdw_energy:          -26.841766
##########                      Grid_es_energy:            1.655006
##########           Internal_energy_repulsive:           13.269448

@<TRIPOS>MOLECULE
ZINC000656860804
 28 29 1 0 0
SMALL
USER_CHARGES


@<TRIPOS>ATOM
      1 O1         -0.0327   -0.7372   49.6927 O.2     1  ZINC000656860804   -0.5400
      2 C2         -0.5598    0.0656   48.9521 C.2     1  ZINC000656860804    0.5100
      3 C3          0.0436    0.2917   47.5927 C.3     1  ZINC000656860804    0.1100
      4 N4         -0.9084    1.0523   46.7697 N.am    1  ZINC000656860804   -1.0000
      5 S5         -1.1849    0.6576   45.1853 S.o2    1  ZINC000656860804    2.6900
      6 O6         -1.5267   -0.7215   45.1691 O.2     1  ZINC000656860804   -0.9200
      7 O7         -2.0282    1.6736   44.6600 O.2     1  ZINC000656860804   -0.9300
      8 C8          0.3527    0.7992   44.3366 C.ar    1  ZINC000656860804   -0.6500
      9 C9          1.4011    1.4875   44.9169 C.ar    1  ZINC000656860804    0.0100
     10 C10         2.6087    1.5989   44.2509 C.ar    1  ZINC000656860804   -0.0400
     11 Cl11        3.9259    2.4632   44.9801 Cl      1  ZINC000656860804   -0.0200
     12 C12         2.7664    1.0207   43.0029 C.ar    1  ZINC000656860804    0.0200
     13 Cl13        4.2815    1.1595   42.1667 Cl      1  ZINC000656860804   -0.0100
     14 C14         1.7165    0.3317   42.4227 C.ar    1  ZINC000656860804   -0.0900
     15 C15         0.5118    0.2162   43.0920 C.ar    1  ZINC000656860804    0.0100
     16 Br16       -0.9236   -0.7254   42.2989 Br      1  ZINC000656860804    0.0100
     17 C17        -1.6065    2.1789   47.4117 C.3     1  ZINC000656860804    0.0900
     18 C18        -2.4368    1.6274   48.5723 C.3     1  ZINC000656860804    0.0800
     19 N19        -1.6510    0.7035   49.3782 N.am    1  ZINC000656860804   -0.7100
     20 H20         0.9707    0.8561   47.6941 H       1  ZINC000656860804    0.1200
     21 H21         0.2489   -0.6687   47.1200 H       1  ZINC000656860804    0.1200
     22 H22         1.2777    1.9388   45.8903 H       1  ZINC000656860804    0.1700
     23 H23         1.8388   -0.1192   41.4491 H       1  ZINC000656860804    0.1700
     24 H24        -0.8777    2.8962   47.7892 H       1  ZINC000656860804    0.1000
     25 H25        -2.2618    2.6654   46.6892 H       1  ZINC000656860804    0.1200
     26 H26        -2.7741    2.4544   49.1970 H       1  ZINC000656860804    0.1000
     27 H27        -3.3049    1.1019   48.1744 H       1  ZINC000656860804    0.0800
     28 H28        -1.9376    0.5454   50.2913 H       1  ZINC000656860804    0.4000
@<TRIPOS>BOND
     1     1     2    2
     2     2    19   am
     3     2     3    1
     4     3     4    1
     5     3    20    1
     6     3    21    1
     7     4     5   am
     8     4    17    1
     9     5     6    2
    10     5     7    2
    11     5     8    1
    12     8    15   ar
    13     8     9   ar
    14     9    10   ar
    15     9    22    1
    16    10    11    1
    17    10    12   ar
    18    12    13    1
    19    12    14   ar
    20    14    15   ar
    21    14    23    1
    22    15    16    1
    23    17    18    1
    24    17    24    1
    25    17    25    1
    26    18    19    1
    27    18    26    1
    28    18    27    1
    29    19    28    1
@<TRIPOS>SUBSTRUCTURE
     1 ZINC000656860804        1 TEMP              0 ****  ****    0 ROOT


##########                                Name:    ZINC000431691749
##########                DOCK_Rotatable_Bonds:                   4
##########                         Heavy_Atoms:                  24
##########                    Molecular_Weight:             328.454
##########                DOCK_Rotatable_Bonds:                   4
##########                       Formal_Charge:         -0.00999957
##########                     HBond_Acceptors:                   4
##########                        HBond_Donors:                   0
##########                         Heavy_Atoms:                  24
##########                          Grid_Score:          -25.072861
##########                     Grid_vdw_energy:          -24.227325
##########                      Grid_es_energy:           -0.845535
##########           Internal_energy_repulsive:          125.169357

@<TRIPOS>MOLECULE
ZINC000431691749
 52 54 1 0 0
SMALL
USER_CHARGES


@<TRIPOS>ATOM
      1 C1          3.0715    4.9331   50.5253 C.3     1  ZINC000431691749   -0.1200
      2 C2          2.5953    3.5102   50.6658 C.ar    1  ZINC000431691749   -0.0800
      3 C3          3.3532    2.5942   51.3707 C.ar    1  ZINC000431691749   -0.1200
      4 C4          2.9164    1.2889   51.4996 C.ar    1  ZINC000431691749   -0.1100
      5 C5          1.7215    0.8999   50.9240 C.ar    1  ZINC000431691749   -0.1100
      6 C6          0.9629    1.8164   50.2197 C.ar    1  ZINC000431691749   -0.0800
      7 C7         -0.3398    1.3923   49.5917 C.3     1  ZINC000431691749    0.2000
      8 H8         -0.4992    0.3288   49.7689 H       1  ZINC000431691749    0.1100
      9 N9         -1.4396    2.1565   50.1855 N.am    1  ZINC000431691749   -0.5700
     10 C10        -1.2853    3.0677   51.1664 C.2     1  ZINC000431691749    0.5200
     11 O11        -0.2496    3.3971   51.7036 O.2     1  ZINC000431691749   -0.4400
     12 C12        -2.6760    3.5957   51.4578 C.3     1  ZINC000431691749    0.0900
     13 H13        -2.9594    3.3816   52.4883 H       1  ZINC000431691749    0.1300
     14 C14        -2.7497    5.0989   51.1822 C.3     1  ZINC000431691749   -0.1500
     15 N15        -3.5329    2.8508   50.5191 N.am    1  ZINC000431691749   -0.6000
     16 C16        -4.9855    2.9733   50.3742 C.3     1  ZINC000431691749    0.1500
     17 C17        -5.7435    1.6609   50.6349 C.3     1  ZINC000431691749   -0.1600
     18 C18        -5.8020    2.0801   52.1133 C.3     1  ZINC000431691749   -0.1400
     19 C19        -5.6842    3.5333   51.6245 C.3     1  ZINC000431691749   -0.1500
     20 C20        -2.7206    2.0403   49.8171 C.2     1  ZINC000431691749    0.7000
     21 O21        -3.1079    1.2817   48.9501 O.2     1  ZINC000431691749   -0.5300
     22 C22        -0.2899    1.6566   48.0856 C.3     1  ZINC000431691749   -0.0700
     23 C23        -0.9481    3.0040   47.7821 C.3     1  ZINC000431691749   -0.1400
     24 C24         1.1675    1.6848   47.6208 C.3     1  ZINC000431691749   -0.1400
     25 C25        -1.0392    0.5453   47.3477 C.3     1  ZINC000431691749   -0.1600
     26 C26         1.3975    3.1225   50.0945 C.ar    1  ZINC000431691749   -0.1100
     27 H27         2.6923    5.5269   51.3570 H       1  ZINC000431691749    0.0700
     28 H28         4.1613    4.9537   50.5312 H       1  ZINC000431691749    0.0700
     29 H29         2.7053    5.3477   49.5861 H       1  ZINC000431691749    0.0700
     30 H30         4.2870    2.8981   51.8205 H       1  ZINC000431691749    0.1200
     31 H31         3.5090    0.5729   52.0498 H       1  ZINC000431691749    0.1200
     32 H32         1.3805   -0.1199   51.0241 H       1  ZINC000431691749    0.1100
     33 H33        -2.4871    5.2909   50.1419 H       1  ZINC000431691749    0.0700
     34 H34        -3.7626    5.4539   51.3726 H       1  ZINC000431691749    0.0800
     35 H35        -2.0523    5.6228   51.8357 H       1  ZINC000431691749    0.0800
     36 H36        -5.2782    3.4720   49.4502 H       1  ZINC000431691749    0.1000
     37 H37        -6.7208    1.6182   50.1541 H       1  ZINC000431691749    0.0900
     38 H38        -5.1440    0.7680   50.4576 H       1  ZINC000431691749    0.0700
     39 H39        -6.7548    1.8566   52.5930 H       1  ZINC000431691749    0.0700
     40 H40        -4.9444    1.7446   52.6965 H       1  ZINC000431691749    0.0800
     41 H41        -5.0370    4.1520   52.2461 H       1  ZINC000431691749    0.1000
     42 H42        -6.6454    4.0025   51.4142 H       1  ZINC000431691749    0.0900
     43 H43        -0.4144    3.7957   48.3078 H       1  ZINC000431691749    0.0600
     44 H44        -0.9125    3.1923   46.7091 H       1  ZINC000431691749    0.0600
     45 H45        -1.9864    2.9840   48.1133 H       1  ZINC000431691749    0.0600
     46 H46         1.6364    0.7249   47.8370 H       1  ZINC000431691749    0.0500
     47 H47         1.2031    1.8731   46.5478 H       1  ZINC000431691749    0.0600
     48 H48         1.7012    2.4765   48.1465 H       1  ZINC000431691749    0.0500
     49 H49        -1.7760    0.0986   48.0152 H       1  ZINC000431691749    0.0700
     50 H50        -1.5441    0.9637   46.4770 H       1  ZINC000431691749    0.0400
     51 H51        -0.3311   -0.2181   47.0251 H       1  ZINC000431691749    0.1000
     52 H52         0.8049    3.8384   49.5444 H       1  ZINC000431691749    0.1300
@<TRIPOS>BOND
     1     1     2    1
     2     1    27    1
     3     1    28    1
     4     1    29    1
     5     2    26   ar
     6     2     3   ar
     7     3     4   ar
     8     3    30    1
     9     4     5   ar
    10     4    31    1
    11     5     6   ar
    12     5    32    1
    13     6     7    1
    14     6    26   ar
    15     7     8    1
    16     7     9    1
    17     7    22    1
    18     9    20   am
    19     9    10   am
    20    10    11    2
    21    10    12    1
    22    12    13    1
    23    12    14    1
    24    12    15    1
    25    14    33    1
    26    14    34    1
    27    14    35    1
    28    15    16    1
    29    15    20   am
    30    16    19    1
    31    16    17    1
    32    16    36    1
    33    17    18    1
    34    17    37    1
    35    17    38    1
    36    18    19    1
    37    18    39    1
    38    18    40    1
    39    19    41    1
    40    19    42    1
    41    20    21    2
    42    22    23    1
    43    22    24    1
    44    22    25    1
    45    23    43    1
    46    23    44    1
    47    23    45    1
    48    24    46    1
    49    24    47    1
    50    24    48    1
    51    25    49    1
    52    25    50    1
    53    25    51    1
    54    26    52    1
@<TRIPOS>SUBSTRUCTURE
     1 ZINC000431691749        1 TEMP              0 ****  ****    0 ROOT


##########                                Name:    ZINC001708427409
##########                DOCK_Rotatable_Bonds:                   6
##########                         Heavy_Atoms:                  24
##########                    Molecular_Weight:             334.505
##########                DOCK_Rotatable_Bonds:                   6
##########                       Formal_Charge:          -0.0200006
##########                     HBond_Acceptors:                   5
##########                        HBond_Donors:                   1
##########                         Heavy_Atoms:                  24
##########                          Grid_Score:          -24.986181
##########                     Grid_vdw_energy:          -24.173752
##########                      Grid_es_energy:           -0.812429
##########           Internal_energy_repulsive:           22.848761

@<TRIPOS>MOLECULE
ZINC001708427409
 58 60 1 0 0
SMALL
USER_CHARGES


@<TRIPOS>ATOM
      1 C1        -11.9053   -2.1297   56.8920 C.3     1  ZINC001708427409   -0.1500
      2 C2        -11.8520   -1.7616   58.3760 C.3     1  ZINC001708427409   -0.1200
      3 C3        -10.3926   -1.6475   58.8210 C.3     1  ZINC001708427409    0.0000
      4 H4         -9.8364   -1.0549   58.0946 H       1  ZINC001708427409    0.0800
      5 C5         -9.7778   -3.0453   58.9164 C.3     1  ZINC001708427409   -0.1400
      6 C6        -10.3294   -0.9778   60.1695 C.2     1  ZINC001708427409    0.1800
      7 N7        -11.2227   -1.0589   61.1146 N.2     1  ZINC001708427409   -0.2800
      8 N8        -10.8530   -0.3648   62.1312 N.2     1  ZINC001708427409   -0.3200
      9 C9         -9.6945    0.2011   61.8872 C.2     1  ZINC001708427409    0.3600
     10 N10        -8.9817    1.0225   62.7461 N.3     1  ZINC001708427409   -0.4200
     11 C11        -7.9254    0.2562   63.4636 C.3     1  ZINC001708427409    0.0400
     12 C12        -7.6227    1.0910   64.7273 C.3     1  ZINC001708427409   -0.0900
     13 H13        -6.7446    1.7163   64.5667 H       1  ZINC001708427409    0.0900
     14 C14        -7.4073    0.1727   65.9320 C.3     1  ZINC001708427409   -0.1500
     15 C15        -8.8822    1.9736   64.9375 C.3     1  ZINC001708427409   -0.0800
     16 H16        -9.3126    1.8149   65.9261 H       1  ZINC001708427409    0.0900
     17 C17        -8.4475    3.4282   64.7560 C.3     1  ZINC001708427409   -0.1100
     18 C18        -9.6797    4.3247   64.6370 C.3     1  ZINC001708427409   -0.1200
     19 C19       -10.4202    3.9614   63.3518 C.3     1  ZINC001708427409   -0.1100
     20 C20       -10.8655    2.5135   63.3816 C.3     1  ZINC001708427409   -0.1000
     21 C21        -9.8424    1.5177   63.8419 C.3     1  ZINC001708427409    0.1000
     22 H22       -10.3856    0.6531   64.2235 H       1  ZINC001708427409    0.0600
     23 N23        -9.3213   -0.1771   60.6303 N.pl3   1  ZINC001708427409   -0.4700
     24 C24        -8.0988    0.2039   59.9184 C.3     1  ZINC001708427409    0.0800
     25 C25        -8.3555    1.4770   59.1096 C.3     1  ZINC001708427409    0.1200
     26 C26        -8.6100    2.6451   60.0645 C.3     1  ZINC001708427409   -0.1800
     27 C27        -7.1337    1.7847   58.2416 C.3     1  ZINC001708427409   -0.1500
     28 O28        -9.4986    1.2877   58.2732 O.3     1  ZINC001708427409   -0.5400
     29 H29       -11.4023   -3.0840   56.7360 H       1  ZINC001708427409    0.0600
     30 H30       -12.9450   -2.2110   56.5749 H       1  ZINC001708427409    0.0600
     31 H31       -11.4067   -1.3564   56.3076 H       1  ZINC001708427409    0.0500
     32 H32       -12.3550   -0.8073   58.5320 H       1  ZINC001708427409    0.0700
     33 H33       -12.3506   -2.5348   58.9603 H       1  ZINC001708427409    0.0800
     34 H34        -9.8234   -3.5298   57.9412 H       1  ZINC001708427409    0.0700
     35 H35        -8.7381   -2.9640   59.2335 H       1  ZINC001708427409    0.0500
     36 H36       -10.3338   -3.6380   59.6429 H       1  ZINC001708427409    0.0700
     37 H37        -8.2947   -0.7313   63.7406 H       1  ZINC001708427409    0.0600
     38 H38        -7.0329    0.1685   62.8440 H       1  ZINC001708427409    0.0800
     39 H39        -6.5508   -0.4752   65.7464 H       1  ZINC001708427409    0.0600
     40 H40        -7.2206    0.7764   66.8201 H       1  ZINC001708427409    0.0600
     41 H41        -8.2972   -0.4371   66.0877 H       1  ZINC001708427409    0.0600
     42 H42        -7.8547    3.7394   65.6163 H       1  ZINC001708427409    0.0600
     43 H43        -7.8461    3.5168   63.8514 H       1  ZINC001708427409    0.0700
     44 H44       -10.3335    4.1643   65.4941 H       1  ZINC001708427409    0.0600
     45 H45        -9.3704    5.3692   64.5987 H       1  ZINC001708427409    0.0600
     46 H46       -11.2943    4.6039   63.2472 H       1  ZINC001708427409    0.0600
     47 H47        -9.7578    4.1157   62.4999 H       1  ZINC001708427409    0.0600
     48 H48       -11.7261    2.4348   64.0461 H       1  ZINC001708427409    0.0600
     49 H49       -11.1885    2.2350   62.3786 H       1  ZINC001708427409    0.0700
     50 H50        -7.3008    0.3854   60.6383 H       1  ZINC001708427409    0.0900
     51 H51        -7.8046   -0.6013   59.2451 H       1  ZINC001708427409    0.1000
     52 H52        -7.7381    2.7895   60.7024 H       1  ZINC001708427409    0.0700
     53 H53        -8.7929    3.5522   59.4882 H       1  ZINC001708427409    0.0700
     54 H54        -9.4804    2.4259   60.6828 H       1  ZINC001708427409    0.0600
     55 H55        -6.9026    0.9198   57.6198 H       1  ZINC001708427409    0.0700
     56 H56        -7.3473    2.6433   57.6049 H       1  ZINC001708427409    0.0700
     57 H57        -6.2807    2.0103   58.8817 H       1  ZINC001708427409    0.0700
     58 H58        -9.7199    2.0564   57.7298 H       1  ZINC001708427409    0.3800
@<TRIPOS>BOND
     1     1     2    1
     2     1    29    1
     3     1    30    1
     4     1    31    1
     5     2     3    1
     6     2    32    1
     7     2    33    1
     8     3     4    1
     9     3     5    1
    10     3     6    1
    11     5    34    1
    12     5    35    1
    13     5    36    1
    14     6    23    1
    15     6     7    2
    16     7     8    1
    17     8     9    2
    18     9    10    1
    19     9    23    1
    20    10    21    1
    21    10    11    1
    22    11    12    1
    23    11    37    1
    24    11    38    1
    25    12    13    1
    26    12    14    1
    27    12    15    1
    28    14    39    1
    29    14    40    1
    30    14    41    1
    31    15    16    1
    32    15    21    1
    33    15    17    1
    34    17    18    1
    35    17    42    1
    36    17    43    1
    37    18    19    1
    38    18    44    1
    39    18    45    1
    40    19    20    1
    41    19    46    1
    42    19    47    1
    43    20    21    1
    44    20    48    1
    45    20    49    1
    46    21    22    1
    47    23    24    1
    48    24    25    1
    49    24    50    1
    50    24    51    1
    51    25    26    1
    52    25    27    1
    53    25    28    1
    54    26    52    1
    55    26    53    1
    56    26    54    1
    57    27    55    1
    58    27    56    1
    59    27    57    1
    60    28    58    1
@<TRIPOS>SUBSTRUCTURE
     1 ZINC001708427409        1 TEMP              0 ****  ****    0 ROOT


##########                                Name:    ZINC000653668607
##########                DOCK_Rotatable_Bonds:                   5
##########                         Heavy_Atoms:                  28
##########                    Molecular_Weight:             379.459
##########                DOCK_Rotatable_Bonds:                   5
##########                       Formal_Charge:          0.00999918
##########                     HBond_Acceptors:                   6
##########                        HBond_Donors:                   2
##########                         Heavy_Atoms:                  28
##########                          Grid_Score:          -24.462778
##########                     Grid_vdw_energy:          -23.907471
##########                      Grid_es_energy:           -0.555308
##########           Internal_energy_repulsive:            8.476949

@<TRIPOS>MOLECULE
ZINC000653668607
 53 56 1 0 0
SMALL
USER_CHARGES


@<TRIPOS>ATOM
      1 C1         -7.7677    1.7141   59.0047 C.3     1  ZINC000653668607    0.0300
      2 O2         -7.8266    0.2878   58.9414 O.3     1  ZINC000653668607   -0.3200
      3 C3         -9.0603   -0.2810   58.9792 C.ar    1  ZINC000653668607    0.1300
      4 C4         -9.8180   -0.2262   60.1398 C.ar    1  ZINC000653668607   -0.2000
      5 C5        -11.0696   -0.8040   60.1667 C.ar    1  ZINC000653668607   -0.0800
      6 C6        -11.5794   -1.4407   59.0423 C.ar    1  ZINC000653668607   -0.1000
      7 C7        -12.9597   -2.0365   59.1403 C.3     1  ZINC000653668607   -0.0800
      8 C8        -13.1917   -3.0427   58.0150 C.3     1  ZINC000653668607   -0.1200
      9 C9        -12.8280   -2.3730   56.6845 C.3     1  ZINC000653668607   -0.1100
     10 C10       -11.3132   -2.1838   56.6387 C.3     1  ZINC000653668607   -0.0600
     11 H11       -10.8319   -3.1577   56.5498 H       1  ZINC000653668607    0.1000
     12 C12       -10.9538   -1.3409   55.4422 C.2     1  ZINC000653668607    0.5200
     13 O13       -10.1360   -1.7422   54.6414 O.2     1  ZINC000653668607   -0.5100
     14 N14       -11.5409   -0.1413   55.2621 N.am    1  ZINC000653668607   -0.6700
     15 C15       -11.2072    0.6413   54.1512 C.ar    1  ZINC000653668607    0.1500
     16 C16       -12.1743    0.9517   53.2037 C.ar    1  ZINC000653668607   -0.1100
     17 C17       -11.8455    1.7244   52.1063 C.ar    1  ZINC000653668607   -0.0900
     18 C18       -10.5548    2.1906   51.9479 C.ar    1  ZINC000653668607   -0.1200
     19 C19        -9.5828    1.8832   52.8918 C.ar    1  ZINC000653668607    0.1700
     20 N20        -8.2754    2.3554   52.7304 N.am    1  ZINC000653668607   -0.5800
     21 C21        -7.1992    1.4041   52.4486 C.3     1  ZINC000653668607    0.1100
     22 C22        -6.1091    2.1056   51.6314 C.3     1  ZINC000653668607   -0.1500
     23 C23        -5.6486    3.3496   52.3987 C.3     1  ZINC000653668607    0.1100
     24 N24        -6.8090    4.1953   52.6831 N.am    1  ZINC000653668607   -0.7400
     25 C25        -8.0348    3.6711   52.8315 C.2     1  ZINC000653668607    0.7100
     26 O26        -8.9630    4.4171   53.0772 O.2     1  ZINC000653668607   -0.5800
     27 C27        -9.9112    1.1128   53.9979 C.ar    1  ZINC000653668607   -0.1300
     28 C28       -10.8265   -1.5014   57.8904 C.ar    1  ZINC000653668607   -0.0300
     29 C29        -9.5697   -0.9135   57.8577 C.ar    1  ZINC000653668607   -0.1500
     30 H30        -8.3116    2.1381   58.1606 H       1  ZINC000653668607    0.0600
     31 H31        -8.2191    2.0555   59.9362 H       1  ZINC000653668607    0.0600
     32 H32        -6.7273    2.0369   58.9655 H       1  ZINC000653668607    0.1000
     33 H33        -9.4292    0.2664   61.0187 H       1  ZINC000653668607    0.1300
     34 H34       -11.6592   -0.7613   61.0706 H       1  ZINC000653668607    0.1300
     35 H35       -13.0661   -2.5407   60.1008 H       1  ZINC000653668607    0.0800
     36 H36       -13.7007   -1.2403   59.0689 H       1  ZINC000653668607    0.0800
     37 H37       -12.5611   -3.9183   58.1696 H       1  ZINC000653668607    0.0700
     38 H38       -14.2396   -3.3423   58.0008 H       1  ZINC000653668607    0.0800
     39 H39       -13.1441   -3.0070   55.8561 H       1  ZINC000653668607    0.0700
     40 H40       -13.3214   -1.4036   56.6146 H       1  ZINC000653668607    0.0800
     41 H41       -12.1950    0.1796   55.9025 H       1  ZINC000653668607    0.4100
     42 H42       -13.1841    0.5884   53.3246 H       1  ZINC000653668607    0.1400
     43 H43       -12.5991    1.9642   51.3708 H       1  ZINC000653668607    0.1300
     44 H44       -10.3009    2.7943   51.0892 H       1  ZINC000653668607    0.1200
     45 H45        -6.7764    1.0441   53.3866 H       1  ZINC000653668607    0.0700
     46 H46        -7.5960    0.5629   51.8802 H       1  ZINC000653668607    0.0900
     47 H47        -5.2657    1.4298   51.4898 H       1  ZINC000653668607    0.1000
     48 H48        -6.5113    2.4013   50.6623 H       1  ZINC000653668607    0.0800
     49 H49        -5.1799    3.0471   53.3352 H       1  ZINC000653668607    0.0700
     50 H50        -4.9318    3.9057   51.7945 H       1  ZINC000653668607    0.0900
     51 H51        -6.6898    5.1547   52.7622 H       1  ZINC000653668607    0.4200
     52 H52        -9.1574    0.8728   54.7331 H       1  ZINC000653668607    0.1300
     53 H53        -8.9825   -0.9540   56.9521 H       1  ZINC000653668607    0.1200
@<TRIPOS>BOND
     1     1     2    1
     2     1    30    1
     3     1    31    1
     4     1    32    1
     5     2     3    1
     6     3    29   ar
     7     3     4   ar
     8     4     5   ar
     9     4    33    1
    10     5     6   ar
    11     5    34    1
    12     6    28   ar
    13     6     7    1
    14     7     8    1
    15     7    35    1
    16     7    36    1
    17     8     9    1
    18     8    37    1
    19     8    38    1
    20     9    10    1
    21     9    39    1
    22     9    40    1
    23    10    11    1
    24    10    12    1
    25    10    28    1
    26    12    13    2
    27    12    14   am
    28    14    15    1
    29    14    41    1
    30    15    27   ar
    31    15    16   ar
    32    16    17   ar
    33    16    42    1
    34    17    18   ar
    35    17    43    1
    36    18    19   ar
    37    18    44    1
    38    19    20    1
    39    19    27   ar
    40    20    25   am
    41    20    21    1
    42    21    22    1
    43    21    45    1
    44    21    46    1
    45    22    23    1
    46    22    47    1
    47    22    48    1
    48    23    24    1
    49    23    49    1
    50    23    50    1
    51    24    25   am
    52    24    51    1
    53    25    26    2
    54    27    52    1
    55    28    29   ar
    56    29    53    1
@<TRIPOS>SUBSTRUCTURE
     1 ZINC000653668607        1 TEMP              0 ****  ****    0 ROOT


##########                                Name:    ZINC000463474628
##########                DOCK_Rotatable_Bonds:                   5
##########                         Heavy_Atoms:                  25
##########                    Molecular_Weight:              407.35
##########                DOCK_Rotatable_Bonds:                   5
##########                       Formal_Charge:           0.0200004
##########                     HBond_Acceptors:                   4
##########                        HBond_Donors:                   0
##########                         Heavy_Atoms:                  25
##########                          Grid_Score:          -24.384228
##########                     Grid_vdw_energy:          -24.233294
##########                      Grid_es_energy:           -0.150934
##########           Internal_energy_repulsive:           32.298138

@<TRIPOS>MOLECULE
ZINC000463474628
 52 54 1 0 0
SMALL
USER_CHARGES


@<TRIPOS>ATOM
      1 C1        -10.4975    2.1886   57.9058 C.3     1  ZINC000463474628   -0.1400
      2 C2         -9.5955    0.9543   57.9669 C.3     1  ZINC000463474628   -0.1300
      3 C3         -9.7571    0.2713   59.3264 C.3     1  ZINC000463474628    0.1400
      4 H4        -10.7523    0.4692   59.7245 H       1  ZINC000463474628    0.0800
      5 C5         -8.6861    0.7938   60.3069 C.3     1  ZINC000463474628   -0.1300
      6 C6         -8.2919   -0.4791   61.1016 C.3     1  ZINC000463474628   -0.1300
      7 C7         -8.3922   -1.5719   60.0083 C.3     1  ZINC000463474628    0.0900
      8 N8         -9.5542   -1.1781   59.1851 N.am    1  ZINC000463474628   -0.6100
      9 C9        -10.3002   -2.0091   58.4307 C.2     1  ZINC000463474628    0.5300
     10 O10       -10.0363   -3.1922   58.3896 O.2     1  ZINC000463474628   -0.5100
     11 C11       -11.4623   -1.4683   57.6381 C.3     1  ZINC000463474628   -0.1200
     12 H12       -11.5418   -0.3928   57.7968 H       1  ZINC000463474628    0.1000
     13 C13       -12.7540   -2.1490   58.0964 C.3     1  ZINC000463474628   -0.1000
     14 C14       -13.9391   -1.5770   57.3151 C.3     1  ZINC000463474628   -0.1300
     15 C15       -13.7463   -1.8612   55.8221 C.3     1  ZINC000463474628    0.0900
     16 N16       -12.4388   -1.3358   55.4058 N.am    1  ZINC000463474628   -0.6000
     17 C17       -12.3399   -0.4888   54.3621 C.2     1  ZINC000463474628    0.5700
     18 O18       -13.3382   -0.1527   53.7554 O.2     1  ZINC000463474628   -0.5200
     19 C19       -11.0176    0.0312   53.9552 C.ar    1  ZINC000463474628   -0.1200
     20 C20       -10.0655   -0.8285   53.4051 C.ar    1  ZINC000463474628   -0.0800
     21 C21        -8.8332   -0.3373   53.0274 C.ar    1  ZINC000463474628   -0.1000
     22 C22        -8.5397    1.0056   53.1931 C.ar    1  ZINC000463474628   -0.0700
     23 Br23       -6.8482    1.6710   52.6720 Br      1  ZINC000463474628   -0.0400
     24 C24        -9.4803    1.8637   53.7383 C.ar    1  ZINC000463474628   -0.0900
     25 C25       -10.7177    1.3856   54.1145 C.ar    1  ZINC000463474628   -0.0300
     26 C26       -11.7400    2.3205   54.7077 C.3     1  ZINC000463474628   -0.1300
     27 C27       -11.2409   -1.7505   56.1488 C.3     1  ZINC000463474628    0.1200
     28 H28       -11.5073    1.8872   57.6276 H       1  ZINC000463474628    0.0700
     29 H29       -10.5187    2.6718   58.8826 H       1  ZINC000463474628    0.0600
     30 H30       -10.1091    2.8861   57.1637 H       1  ZINC000463474628    0.0300
     31 H31        -9.8765    0.2594   57.1754 H       1  ZINC000463474628    0.0600
     32 H32        -8.5568    1.2563   57.8333 H       1  ZINC000463474628    0.0700
     33 H33        -7.8280    1.1912   59.7649 H       1  ZINC000463474628    0.0800
     34 H34        -9.1070    1.5484   60.9715 H       1  ZINC000463474628    0.0800
     35 H35        -7.2741   -0.4013   61.4841 H       1  ZINC000463474628    0.0900
     36 H36        -8.9979   -0.6693   61.9100 H       1  ZINC000463474628    0.0800
     37 H37        -7.4855   -1.5879   59.4037 H       1  ZINC000463474628    0.0700
     38 H38        -8.5640   -2.5479   60.4621 H       1  ZINC000463474628    0.0800
     39 H39       -12.6833   -3.2215   57.9153 H       1  ZINC000463474628    0.0800
     40 H40       -12.9009   -1.9698   59.1615 H       1  ZINC000463474628    0.0700
     41 H41       -14.8615   -2.0455   57.6584 H       1  ZINC000463474628    0.0800
     42 H42       -13.9955   -0.5004   57.4762 H       1  ZINC000463474628    0.0700
     43 H43       -13.7803   -2.9365   55.6474 H       1  ZINC000463474628    0.0800
     44 H44       -14.5354   -1.3711   55.2519 H       1  ZINC000463474628    0.1000
     45 H45       -10.2931   -1.8764   53.2757 H       1  ZINC000463474628    0.1400
     46 H46        -8.0956   -1.0016   52.6020 H       1  ZINC000463474628    0.1400
     47 H47        -9.2455    2.9102   53.8655 H       1  ZINC000463474628    0.1400
     48 H48       -12.4091    2.6728   53.9227 H       1  ZINC000463474628    0.0700
     49 H49       -12.3170    1.7933   55.4674 H       1  ZINC000463474628    0.0900
     50 H50       -11.2332    3.1719   55.1621 H       1  ZINC000463474628    0.0700
     51 H51       -10.3776   -1.1877   55.7938 H       1  ZINC000463474628    0.1000
     52 H52       -11.0704   -2.8170   56.0011 H       1  ZINC000463474628    0.0800
@<TRIPOS>BOND
     1     1     2    1
     2     1    28    1
     3     1    29    1
     4     1    30    1
     5     2     3    1
     6     2    31    1
     7     2    32    1
     8     3     4    1
     9     3     8    1
    10     3     5    1
    11     5     6    1
    12     5    33    1
    13     5    34    1
    14     6     7    1
    15     6    35    1
    16     6    36    1
    17     7     8    1
    18     7    37    1
    19     7    38    1
    20     8     9   am
    21     9    10    2
    22     9    11    1
    23    11    12    1
    24    11    27    1
    25    11    13    1
    26    13    14    1
    27    13    39    1
    28    13    40    1
    29    14    15    1
    30    14    41    1
    31    14    42    1
    32    15    16    1
    33    15    43    1
    34    15    44    1
    35    16    17   am
    36    16    27    1
    37    17    18    2
    38    17    19    1
    39    19    25   ar
    40    19    20   ar
    41    20    21   ar
    42    20    45    1
    43    21    22   ar
    44    21    46    1
    45    22    23    1
    46    22    24   ar
    47    24    25   ar
    48    24    47    1
    49    25    26    1
    50    26    48    1
    51    26    49    1
    52    26    50    1
    53    27    51    1
    54    27    52    1
@<TRIPOS>SUBSTRUCTURE
     1 ZINC000463474628        1 TEMP              0 ****  ****    0 ROOT


##########                                Name:    ZINC000341804698
##########                DOCK_Rotatable_Bonds:                   7
##########                         Heavy_Atoms:                  24
##########                    Molecular_Weight:             342.318
##########                DOCK_Rotatable_Bonds:                   7
##########                       Formal_Charge:                0.02
##########                     HBond_Acceptors:                   8
##########                        HBond_Donors:                   0
##########                         Heavy_Atoms:                  24
##########                          Grid_Score:          -24.218668
##########                     Grid_vdw_energy:          -24.543850
##########                      Grid_es_energy:            0.325182
##########           Internal_energy_repulsive:           27.902872

@<TRIPOS>MOLECULE
ZINC000341804698
 41 42 1 0 0
SMALL
USER_CHARGES


@<TRIPOS>ATOM
      1 C1          0.7237    0.5549   43.8503 C.3     1  ZINC000341804698    0.0300
      2 O2         -0.0984    0.8377   44.9845 O.3     1  ZINC000341804698   -0.3900
      3 C3          0.5447    1.6289   45.9857 C.3     1  ZINC000341804698    0.0700
      4 C4         -0.1275    1.3846   47.3383 C.3     1  ZINC000341804698    0.0400
      5 C5         -0.5424   -0.0246   47.4324 C.1     1  ZINC000341804698    0.2200
      6 N6         -0.8626   -1.1120   47.5050 N.1     1  ZINC000341804698   -0.4200
      7 C7          0.8606    1.7012   48.4632 C.3     1  ZINC000341804698   -0.1200
      8 C8          0.1956    1.4226   49.8149 C.3     1  ZINC000341804698    0.1100
      9 N9         -1.0631    2.1770   49.8873 N.am    1  ZINC000341804698   -0.6000
     10 C10        -1.3106    3.0019   50.9239 C.2     1  ZINC000341804698    0.5700
     11 O11        -0.4887    3.1271   51.8107 O.2     1  ZINC000341804698   -0.5200
     12 C12        -2.5819    3.7545   50.9827 C.ar    1  ZINC000341804698   -0.0900
     13 C13        -2.5722    5.1496   50.9469 C.ar    1  ZINC000341804698   -0.1100
     14 C14        -3.7606    5.8490   51.0021 C.ar    1  ZINC000341804698   -0.0800
     15 C15        -4.9624    5.1719   51.0928 C.ar    1  ZINC000341804698   -0.1700
     16 C16        -4.9821    3.7840   51.1295 C.ar    1  ZINC000341804698    0.1100
     17 O17        -6.1666    3.1235   51.2191 O.3     1  ZINC000341804698   -0.3100
     18 C18        -6.1100    1.7286   51.5245 C.3     1  ZINC000341804698    0.6000
     19 F19        -5.5674    1.0349   50.4376 F       1  ZINC000341804698   -0.1600
     20 F20        -5.3065    1.5304   52.6524 F       1  ZINC000341804698   -0.1300
     21 F21        -7.4009    1.2551   51.7825 F       1  ZINC000341804698   -0.1600
     22 C22        -3.7961    3.0724   51.0684 C.ar    1  ZINC000341804698   -0.0700
     23 C23        -2.0465    2.0156   48.8076 C.3     1  ZINC000341804698    0.0900
     24 C24        -1.3564    2.2876   47.4674 C.3     1  ZINC000341804698   -0.1200
     25 H25         1.0246    1.4897   43.3775 H       1  ZINC000341804698    0.0400
     26 H26         1.6105    0.0085   44.1716 H       1  ZINC000341804698    0.0500
     27 H27         0.1633   -0.0493   43.1370 H       1  ZINC000341804698    0.0900
     28 H28         1.5970    1.3515   46.0475 H       1  ZINC000341804698    0.0700
     29 H29         0.4617    2.6838   45.7240 H       1  ZINC000341804698    0.0600
     30 H30         1.7457    1.0741   48.3571 H       1  ZINC000341804698    0.1000
     31 H31         1.1492    2.7509   48.4093 H       1  ZINC000341804698    0.0900
     32 H32        -0.0116    0.3564   49.9073 H       1  ZINC000341804698    0.0700
     33 H33         0.8583    1.7393   50.6203 H       1  ZINC000341804698    0.1100
     34 H34        -1.6349    5.6818   50.8764 H       1  ZINC000341804698    0.1400
     35 H35        -3.7517    6.9286   50.9746 H       1  ZINC000341804698    0.1400
     36 H36        -5.8894    5.7244   51.1356 H       1  ZINC000341804698    0.1400
     37 H37        -3.8099    1.9928   51.0965 H       1  ZINC000341804698    0.1500
     38 H38        -2.4366    0.9978   48.8180 H       1  ZINC000341804698    0.0800
     39 H39        -2.8632    2.7236   48.9484 H       1  ZINC000341804698    0.1100
     40 H40        -1.0469    3.3318   47.4227 H       1  ZINC000341804698    0.1000
     41 H41        -2.0492    2.0779   46.6522 H       1  ZINC000341804698    0.0900
@<TRIPOS>BOND
     1     1     2    1
     2     1    25    1
     3     1    26    1
     4     1    27    1
     5     2     3    1
     6     3     4    1
     7     3    28    1
     8     3    29    1
     9     4    24    1
    10     4     5    1
    11     4     7    1
    12     5     6    3
    13     7     8    1
    14     7    30    1
    15     7    31    1
    16     8     9    1
    17     8    32    1
    18     8    33    1
    19     9    10   am
    20     9    23    1
    21    10    11    2
    22    10    12    1
    23    12    22   ar
    24    12    13   ar
    25    13    14   ar
    26    13    34    1
    27    14    15   ar
    28    14    35    1
    29    15    16   ar
    30    15    36    1
    31    16    17    1
    32    16    22   ar
    33    17    18    1
    34    18    19    1
    35    18    20    1
    36    18    21    1
    37    22    37    1
    38    23    24    1
    39    23    38    1
    40    23    39    1
    41    24    40    1
    42    24    41    1
@<TRIPOS>SUBSTRUCTURE
     1 ZINC000341804698        1 TEMP              0 ****  ****    0 ROOT


##########                                Name:    ZINC000482962466
##########                DOCK_Rotatable_Bonds:                   2
##########                         Heavy_Atoms:                  25
##########                    Molecular_Weight:             404.303
##########                DOCK_Rotatable_Bonds:                   2
##########                       Formal_Charge:           0.0200002
##########                     HBond_Acceptors:                   4
##########                        HBond_Donors:                   0
##########                         Heavy_Atoms:                  25
##########                          Grid_Score:          -24.024931
##########                     Grid_vdw_energy:          -23.922934
##########                      Grid_es_energy:           -0.101998
##########           Internal_energy_repulsive:           14.801164

@<TRIPOS>MOLECULE
ZINC000482962466
 47 50 1 0 0
SMALL
USER_CHARGES


@<TRIPOS>ATOM
      1 C1          3.4309    0.8884   48.3287 C.3     1  ZINC000482962466   -0.1400
      2 C2          2.0305    1.5033   48.3691 C.3     1  ZINC000482962466    0.0700
      3 H3          2.0884    2.5586   48.1026 H       1  ZINC000482962466    0.0700
      4 C4          1.4499    1.3627   49.7808 C.3     1  ZINC000482962466    0.0800
      5 N5          0.0418    1.7885   49.7492 N.am    1  ZINC000482962466   -0.6100
      6 C6         -0.4327    2.6836   50.6380 C.2     1  ZINC000482962466    0.5600
      7 O7          0.3059    3.1519   51.4824 O.2     1  ZINC000482962466   -0.5200
      8 C8         -1.8507    3.0958   50.5863 C.ar    1  ZINC000482962466   -0.1100
      9 C9         -2.1799    4.4629   50.5714 C.ar    1  ZINC000482962466   -0.0700
     10 C10        -3.4750    4.8665   50.5240 C.ar    1  ZINC000482962466   -0.1000
     11 C11        -4.5087    3.9127   50.4889 C.ar    1  ZINC000482962466   -0.0400
     12 C12        -5.8560    4.3064   50.4395 C.ar    1  ZINC000482962466   -0.0700
     13 C13        -6.8353    3.3599   50.4060 C.ar    1  ZINC000482962466   -0.0800
     14 Br14       -8.6473    3.8965   50.3390 Br      1  ZINC000482962466   -0.0400
     15 C15        -6.5215    2.0010   50.4200 C.ar    1  ZINC000482962466   -0.1000
     16 C16        -5.2278    1.5822   50.4679 C.ar    1  ZINC000482962466   -0.0900
     17 C17        -4.1895    2.5308   50.5030 C.ar    1  ZINC000482962466   -0.0500
     18 C18        -2.8455    2.1326   50.5469 C.ar    1  ZINC000482962466   -0.0700
     19 C19        -0.8332    1.2075   48.7182 C.3     1  ZINC000482962466    0.0700
     20 C20        -0.1410    1.3530   47.3594 C.3     1  ZINC000482962466    0.0800
     21 C21        -0.9354    0.5886   46.2975 C.3     1  ZINC000482962466   -0.1100
     22 C22        -0.2799    0.8067   44.9301 C.3     1  ZINC000482962466   -0.1500
     23 C23        -0.2119    2.3083   44.6396 C.3     1  ZINC000482962466    0.0600
     24 O24         0.5156    2.9622   45.6813 O.3     1  ZINC000482962466   -0.3700
     25 C25        -0.0764    2.8328   46.9757 C.3     1  ZINC000482962466    0.0400
     26 O26         1.1829    0.8221   47.4407 O.3     1  ZINC000482962466   -0.3500
     27 H27         3.8422    0.9871   47.3242 H       1  ZINC000482962466    0.0700
     28 H28         4.0760    1.4069   49.0381 H       1  ZINC000482962466    0.0800
     29 H29         3.3722   -0.1669   48.5952 H       1  ZINC000482962466    0.0700
     30 H30         1.5117    0.3226   50.1012 H       1  ZINC000482962466    0.0800
     31 H31         2.0087    1.9938   50.4720 H       1  ZINC000482962466    0.1000
     32 H32        -1.3921    5.2012   50.5985 H       1  ZINC000482962466    0.1400
     33 H33        -3.7121    5.9201   50.5136 H       1  ZINC000482962466    0.1400
     34 H34        -6.1147    5.3549   50.4286 H       1  ZINC000482962466    0.1400
     35 H35        -7.3167    1.2708   50.3927 H       1  ZINC000482962466    0.1400
     36 H36        -4.9993    0.5268   50.4788 H       1  ZINC000482962466    0.1400
     37 H37        -2.5884    1.0836   50.5542 H       1  ZINC000482962466    0.1400
     38 H38        -1.0029    0.1523   48.9327 H       1  ZINC000482962466    0.0900
     39 H39        -1.7856    1.7375   48.7037 H       1  ZINC000482962466    0.1000
     40 H40        -0.9346   -0.4748   46.5367 H       1  ZINC000482962466    0.0800
     41 H41        -1.9607    0.9575   46.2733 H       1  ZINC000482962466    0.0800
     42 H42         0.7278    0.3914   44.9388 H       1  ZINC000482962466    0.0800
     43 H43        -0.8718    0.3131   44.1593 H       1  ZINC000482962466    0.0800
     44 H44         0.2919    2.4716   43.6869 H       1  ZINC000482962466    0.1000
     45 H45        -1.2219    2.7151   44.5910 H       1  ZINC000482962466    0.0500
     46 H46        -1.0839    3.2480   46.9580 H       1  ZINC000482962466    0.0600
     47 H47         0.5264    3.3718   47.7066 H       1  ZINC000482962466    0.1000
@<TRIPOS>BOND
     1     1     2    1
     2     1    27    1
     3     1    28    1
     4     1    29    1
     5     2     3    1
     6     2    26    1
     7     2     4    1
     8     4     5    1
     9     4    30    1
    10     4    31    1
    11     5     6   am
    12     5    19    1
    13     6     7    2
    14     6     8    1
    15     8    18   ar
    16     8     9   ar
    17     9    10   ar
    18     9    32    1
    19    10    11   ar
    20    10    33    1
    21    11    17   ar
    22    11    12   ar
    23    12    13   ar
    24    12    34    1
    25    13    14    1
    26    13    15   ar
    27    15    16   ar
    28    15    35    1
    29    16    17   ar
    30    16    36    1
    31    17    18   ar
    32    18    37    1
    33    19    20    1
    34    19    38    1
    35    19    39    1
    36    20    25    1
    37    20    21    1
    38    20    26    1
    39    21    22    1
    40    21    40    1
    41    21    41    1
    42    22    23    1
    43    22    42    1
    44    22    43    1
    45    23    24    1
    46    23    44    1
    47    23    45    1
    48    24    25    1
    49    25    46    1
    50    25    47    1
@<TRIPOS>SUBSTRUCTURE
     1 ZINC000482962466        1 TEMP              0 ****  ****    0 ROOT


##########                                Name:    ZINC001010141213
##########                DOCK_Rotatable_Bonds:                   4
##########                         Heavy_Atoms:                  24
##########                    Molecular_Weight:             330.346
##########                DOCK_Rotatable_Bonds:                   4
##########                       Formal_Charge:          -0.0100003
##########                     HBond_Acceptors:                   9
##########                        HBond_Donors:                   1
##########                         Heavy_Atoms:                  24
##########                          Grid_Score:          -23.646282
##########                     Grid_vdw_energy:          -22.929455
##########                      Grid_es_energy:           -0.716827
##########           Internal_energy_repulsive:           16.055183

@<TRIPOS>MOLECULE
ZINC001010141213
 42 44 1 0 0
SMALL
USER_CHARGES


@<TRIPOS>ATOM
      1 C1          2.1989    0.3810   48.1203 C.3     1  ZINC001010141213   -0.0800
      2 C2          1.7578    0.5128   46.6853 C.2     1  ZINC001010141213   -0.1500
      3 C3          0.4664    0.6804   46.2166 C.2     1  ZINC001010141213   -0.0400
      4 C4         -0.7618    0.7662   47.0228 C.2     1  ZINC001010141213    0.6000
      5 O5         -1.5353   -0.1718   47.0544 O.2     1  ZINC001010141213   -0.5100
      6 N6         -1.0294    1.8843   47.7262 N.am    1  ZINC001010141213   -0.6100
      7 C7         -2.2489    1.9817   48.5405 C.3     1  ZINC001010141213    0.0900
      8 C8         -1.8505    2.3317   49.9797 C.3     1  ZINC001010141213    0.0700
      9 N9         -0.9277    3.4751   49.9466 N.am    1  ZINC001010141213   -0.6000
     10 C10        -1.1948    4.5927   50.6509 C.2     1  ZINC001010141213    0.5900
     11 O11        -0.4240    5.5319   50.6157 O.2     1  ZINC001010141213   -0.5200
     12 C12        -2.4256    4.6763   51.4665 C.2     1  ZINC001010141213    0.0300
     13 N13        -3.4901    5.2784   50.9860 N.2     1  ZINC001010141213   -0.1800
     14 N14        -4.5819    5.3774   51.6541 N.am    1  ZINC001010141213   -0.4400
     15 C15        -4.7033    4.8677   52.8940 C.2     1  ZINC001010141213    0.4800
     16 O16        -5.7545    4.9778   53.5030 O.2     1  ZINC001010141213   -0.5100
     17 C17        -3.6052    4.2040   53.4851 C.2     1  ZINC001010141213   -0.1800
     18 C18        -2.4550    4.1023   52.7604 C.2     1  ZINC001010141213   -0.0400
     19 C19         0.2918    3.3777   49.1323 C.3     1  ZINC001010141213    0.1000
     20 C20        -0.1038    3.0255   47.6976 C.3     1  ZINC001010141213    0.1000
     21 N21         0.5603    0.7503   44.8556 N.pl3   1  ZINC001010141213   -0.2700
     22 C22        -0.5690    0.9272   43.9394 C.3     1  ZINC001010141213    0.0900
     23 N23         1.7899    0.6378   44.5018 N.2     1  ZINC001010141213   -0.2800
     24 C24         2.5658    0.4979   45.5463 C.2     1  ZINC001010141213    0.0100
     25 H25         2.4109    1.3696   48.5275 H       1  ZINC001010141213    0.0700
     26 H26         1.4063   -0.0892   48.7024 H       1  ZINC001010141213    0.0600
     27 H27         3.0984   -0.2326   48.1690 H       1  ZINC001010141213    0.0700
     28 H28        -2.8950    2.7626   48.1397 H       1  ZINC001010141213    0.0800
     29 H29        -2.7741    1.0267   48.5284 H       1  ZINC001010141213    0.1000
     30 H30        -2.7400    2.5959   50.5515 H       1  ZINC001010141213    0.1400
     31 H31        -1.3568    1.4764   50.4410 H       1  ZINC001010141213    0.0800
     32 H32        -5.3399    5.8321   51.2546 H       1  ZINC001010141213    0.4500
     33 H33        -3.6762    3.7862   54.4785 H       1  ZINC001010141213    0.1700
     34 H34        -1.5866    3.6045   53.1659 H       1  ZINC001010141213    0.1700
     35 H35         0.8171    4.3327   49.1445 H       1  ZINC001010141213    0.1100
     36 H36         0.9381    2.5967   49.5332 H       1  ZINC001010141213    0.0800
     37 H37         0.7867    2.7615   47.1270 H       1  ZINC001010141213    0.1100
     38 H38        -0.5983    3.8792   47.2345 H       1  ZINC001010141213    0.0800
     39 H39        -0.6833    1.9852   43.7033 H       1  ZINC001010141213    0.0900
     40 H40        -0.3837    0.3682   43.0220 H       1  ZINC001010141213    0.1000
     41 H41        -1.4804    0.5596   44.4108 H       1  ZINC001010141213    0.0900
     42 H42         3.6397    0.3840   45.5299 H       1  ZINC001010141213    0.1900
@<TRIPOS>BOND
     1     1     2    1
     2     1    25    1
     3     1    26    1
     4     1    27    1
     5     2    24    1
     6     2     3    2
     7     3     4    1
     8     3    21    1
     9     4     5    2
    10     4     6   am
    11     6    20    1
    12     6     7    1
    13     7     8    1
    14     7    28    1
    15     7    29    1
    16     8     9    1
    17     8    30    1
    18     8    31    1
    19     9    10   am
    20     9    19    1
    21    10    11    2
    22    10    12    1
    23    12    18    1
    24    12    13    2
    25    13    14    1
    26    14    15   am
    27    14    32    1
    28    15    16    2
    29    15    17    1
    30    17    18    2
    31    17    33    1
    32    18    34    1
    33    19    20    1
    34    19    35    1
    35    19    36    1
    36    20    37    1
    37    20    38    1
    38    21    22    1
    39    21    23    1
    40    22    39    1
    41    22    40    1
    42    22    41    1
    43    23    24    2
    44    24    42    1
@<TRIPOS>SUBSTRUCTURE
     1 ZINC001010141213        1 TEMP              0 ****  ****    0 ROOT


##########                                Name:    ZINC000616491533
##########                DOCK_Rotatable_Bonds:                   4
##########                         Heavy_Atoms:                  27
##########                    Molecular_Weight:             375.418
##########                DOCK_Rotatable_Bonds:                   4
##########                       Formal_Charge:           0.0299996
##########                     HBond_Acceptors:                   7
##########                        HBond_Donors:                   0
##########                         Heavy_Atoms:                  27
##########                          Grid_Score:          -23.643068
##########                     Grid_vdw_energy:          -22.829103
##########                      Grid_es_energy:           -0.813966
##########           Internal_energy_repulsive:           10.519028

@<TRIPOS>MOLECULE
ZINC000616491533
 50 53 1 0 0
SMALL
USER_CHARGES


@<TRIPOS>ATOM
      1 C1        -10.4528    4.3428   54.3052 C.3     1  ZINC000616491533   -0.1700
      2 C2         -9.0873    4.9241   54.6771 C.3     1  ZINC000616491533    0.1400
      3 H3         -9.0358    5.9706   54.3768 H       1  ZINC000616491533    0.0800
      4 C4         -8.8623    4.8032   56.2006 C.3     1  ZINC000616491533   -0.1200
      5 C5         -8.0012    3.5285   56.3207 C.3     1  ZINC000616491533   -0.0700
      6 C6         -7.1337    3.5890   55.0489 C.3     1  ZINC000616491533    0.0900
      7 N7         -8.0207    4.1600   54.0123 N.am    1  ZINC000616491533   -0.6100
      8 C8         -7.8759    4.0026   52.6817 C.2     1  ZINC000616491533    0.6100
      9 O9         -8.6705    4.5174   51.9185 O.2     1  ZINC000616491533   -0.5200
     10 C10        -6.7543    3.2064   52.1513 C.2     1  ZINC000616491533   -0.2400
     11 C11        -5.6052    3.6984   51.5652 C.2     1  ZINC000616491533    0.0700
     12 C12        -5.2650    5.1504   51.3488 C.3     1  ZINC000616491533    0.3400
     13 F13        -6.4050    5.8373   50.9177 F       1  ZINC000616491533   -0.1900
     14 F14        -4.8114    5.7070   52.5494 F       1  ZINC000616491533   -0.1600
     15 N15        -4.8448    2.6424   51.2233 N.pl3   1  ZINC000616491533   -0.2900
     16 C16        -3.5911    2.7033   50.5996 C.ar    1  ZINC000616491533    0.1300
     17 C17        -2.5585    3.4259   51.1825 C.ar    1  ZINC000616491533   -0.1000
     18 C18        -1.3242    3.4840   50.5655 C.ar    1  ZINC000616491533   -0.1000
     19 C19        -1.1163    2.8239   49.3684 C.ar    1  ZINC000616491533   -0.1000
     20 C20        -2.1426    2.1036   48.7854 C.ar    1  ZINC000616491533   -0.1000
     21 C21        -3.3773    2.0365   49.4007 C.ar    1  ZINC000616491533   -0.0900
     22 N22        -5.5172    1.4731   51.5955 N.2     1  ZINC000616491533   -0.2600
     23 C23        -6.6516    1.7969   52.1531 C.2     1  ZINC000616491533    0.0700
     24 C24        -7.1323    3.5831   57.5689 C.3     1  ZINC000616491533   -0.1400
     25 C25        -6.3262    2.2843   57.6805 C.3     1  ZINC000616491533    0.0600
     26 O26        -7.2223    1.1709   57.6774 O.3     1  ZINC000616491533   -0.3800
     27 C27        -7.9965    1.0432   56.4829 C.3     1  ZINC000616491533    0.0600
     28 C28        -8.8789    2.2853   56.3161 C.3     1  ZINC000616491533   -0.1500
     29 H29       -10.4927    3.2934   54.5969 H       1  ZINC000616491533    0.0600
     30 H30       -11.2362    4.8945   54.8248 H       1  ZINC000616491533    0.0600
     31 H31       -10.6023    4.4267   53.2287 H       1  ZINC000616491533    0.0800
     32 H32        -8.3229    5.6706   56.5811 H       1  ZINC000616491533    0.0800
     33 H33        -9.8113    4.6782   56.7221 H       1  ZINC000616491533    0.0900
     34 H34        -6.2718    4.2369   55.2078 H       1  ZINC000616491533    0.0800
     35 H35        -6.8098    2.5884   54.7624 H       1  ZINC000616491533    0.0800
     36 H36        -4.4842    5.2318   50.5927 H       1  ZINC000616491533    0.1400
     37 H37        -2.7206    3.9423   52.1171 H       1  ZINC000616491533    0.1300
     38 H38        -0.5207    4.0459   51.0184 H       1  ZINC000616491533    0.1400
     39 H39        -0.1504    2.8715   48.8874 H       1  ZINC000616491533    0.1300
     40 H40        -1.9772    1.5890   47.8504 H       1  ZINC000616491533    0.1400
     41 H41        -4.1786    1.4737   48.9449 H       1  ZINC000616491533    0.1300
     42 H42        -7.3864    1.1078   52.5425 H       1  ZINC000616491533    0.2100
     43 H43        -6.4498    4.4303   57.5005 H       1  ZINC000616491533    0.0800
     44 H44        -7.7658    3.6951   58.4488 H       1  ZINC000616491533    0.0800
     45 H45        -5.6444    2.2051   56.8337 H       1  ZINC000616491533    0.0500
     46 H46        -5.7550    2.2891   58.6089 H       1  ZINC000616491533    0.1000
     47 H47        -7.3300    0.9526   55.6253 H       1  ZINC000616491533    0.0500
     48 H48        -8.6261    0.1560   56.5505 H       1  ZINC000616491533    0.1000
     49 H49        -9.5907    2.3394   57.1398 H       1  ZINC000616491533    0.0800
     50 H50        -9.4186    2.2243   55.3712 H       1  ZINC000616491533    0.0800
@<TRIPOS>BOND
     1     1     2    1
     2     1    29    1
     3     1    30    1
     4     1    31    1
     5     2     3    1
     6     2     7    1
     7     2     4    1
     8     4     5    1
     9     4    32    1
    10     4    33    1
    11     5    28    1
    12     5     6    1
    13     5    24    1
    14     6     7    1
    15     6    34    1
    16     6    35    1
    17     7     8   am
    18     8     9    2
    19     8    10    1
    20    10    23    1
    21    10    11    2
    22    11    12    1
    23    11    15    1
    24    12    13    1
    25    12    14    1
    26    12    36    1
    27    15    16    1
    28    15    22    1
    29    16    21   ar
    30    16    17   ar
    31    17    18   ar
    32    17    37    1
    33    18    19   ar
    34    18    38    1
    35    19    20   ar
    36    19    39    1
    37    20    21   ar
    38    20    40    1
    39    21    41    1
    40    22    23    2
    41    23    42    1
    42    24    25    1
    43    24    43    1
    44    24    44    1
    45    25    26    1
    46    25    45    1
    47    25    46    1
    48    26    27    1
    49    27    28    1
    50    27    47    1
    51    27    48    1
    52    28    49    1
    53    28    50    1
@<TRIPOS>SUBSTRUCTURE
     1 ZINC000616491533        1 TEMP              0 ****  ****    0 ROOT


##########                                Name:    ZINC000569288350
##########                DOCK_Rotatable_Bonds:                   3
##########                         Heavy_Atoms:                  19
##########                    Molecular_Weight:             393.559
##########                DOCK_Rotatable_Bonds:                   3
##########                       Formal_Charge:           0.0299999
##########                     HBond_Acceptors:                   5
##########                        HBond_Donors:                   1
##########                         Heavy_Atoms:                  19
##########                          Grid_Score:          -23.446770
##########                     Grid_vdw_energy:          -23.293381
##########                      Grid_es_energy:           -0.153388
##########           Internal_energy_repulsive:           10.311201

@<TRIPOS>MOLECULE
ZINC000569288350
 26 27 1 0 0
SMALL
USER_CHARGES


@<TRIPOS>ATOM
      1 O1         -2.1686    0.9990   49.9258 O.2     1  ZINC000569288350   -0.4800
      2 C2         -1.5667    1.9668   49.5022 C.2     1  ZINC000569288350    0.5700
      3 N3         -1.0564    1.9501   48.2549 N.am    1  ZINC000569288350   -0.6600
      4 C4         -1.2144    0.8170   47.4496 C.ar    1  ZINC000569288350    0.1800
      5 C5         -0.9232   -0.4425   47.9563 C.ar    1  ZINC000569288350   -0.1200
      6 C6         -1.0797   -1.5605   47.1597 C.ar    1  ZINC000569288350   -0.0600
      7 C7         -1.5255   -1.4275   45.8580 C.ar    1  ZINC000569288350   -0.1500
      8 C8         -1.8174   -0.1733   45.3476 C.ar    1  ZINC000569288350    0.1300
      9 F9         -2.2533   -0.0466   44.0752 F       1  ZINC000569288350   -0.1200
     10 C10        -1.6684    0.9495   46.1430 C.ar    1  ZINC000569288350   -0.1000
     11 Cl11       -2.0343    2.5218   45.5048 Cl      1  ZINC000569288350   -0.0400
     12 C12        -1.4001    3.1624   50.3519 C.ar    1  ZINC000569288350   -0.1400
     13 C13        -2.5168    3.9087   50.7420 C.ar    1  ZINC000569288350    0.1400
     14 F14        -3.7529    3.5377   50.3427 F       1  ZINC000569288350   -0.1200
     15 C15        -2.3514    5.0274   51.5381 C.ar    1  ZINC000569288350   -0.1300
     16 C16        -1.0869    5.4076   51.9470 C.ar    1  ZINC000569288350   -0.0600
     17 C17         0.0223    4.6733   51.5639 C.ar    1  ZINC000569288350   -0.0900
     18 C18        -0.1265    3.5512   50.7756 C.ar    1  ZINC000569288350   -0.0500
     19 I19         1.5553    2.4431   50.1984 I       1  ZINC000569288350    0.0000
     20 H20        -0.5797    2.7237   47.9156 H       1  ZINC000569288350    0.4200
     21 H21        -0.5741   -0.5483   48.9729 H       1  ZINC000569288350    0.1600
     22 H22        -0.8530   -2.5398   47.5546 H       1  ZINC000569288350    0.1500
     23 H23        -1.6461   -2.3033   45.2376 H       1  ZINC000569288350    0.1500
     24 H24        -3.2121    5.6054   51.8407 H       1  ZINC000569288350    0.1500
     25 H25        -0.9636    6.2822   52.5683 H       1  ZINC000569288350    0.1500
     26 H26         1.0069    4.9771   51.8873 H       1  ZINC000569288350    0.1500
@<TRIPOS>BOND
     1     1     2    2
     2     2     3   am
     3     2    12    1
     4     3     4    1
     5     3    20    1
     6     4    10   ar
     7     4     5   ar
     8     5     6   ar
     9     5    21    1
    10     6     7   ar
    11     6    22    1
    12     7     8   ar
    13     7    23    1
    14     8     9    1
    15     8    10   ar
    16    10    11    1
    17    12    18   ar
    18    12    13   ar
    19    13    14    1
    20    13    15   ar
    21    15    16   ar
    22    15    24    1
    23    16    17   ar
    24    16    25    1
    25    17    18   ar
    26    17    26    1
    27    18    19    1
@<TRIPOS>SUBSTRUCTURE
     1 ZINC000569288350        1 TEMP              0 ****  ****    0 ROOT


##########                                Name:    ZINC000550782577
##########                DOCK_Rotatable_Bonds:                   5
##########                         Heavy_Atoms:                  25
##########                    Molecular_Weight:              338.45
##########                DOCK_Rotatable_Bonds:                   5
##########                       Formal_Charge:         -0.00999954
##########                     HBond_Acceptors:                   4
##########                        HBond_Donors:                   0
##########                         Heavy_Atoms:                  25
##########                          Grid_Score:          -23.355198
##########                     Grid_vdw_energy:          -22.941002
##########                      Grid_es_energy:           -0.414197
##########           Internal_energy_repulsive:           31.487270

@<TRIPOS>MOLECULE
ZINC000550782577
 51 53 1 0 0
SMALL
USER_CHARGES


@<TRIPOS>ATOM
      1 C1         -3.1138    1.6003   48.9951 C.3     1  ZINC000550782577    0.0700
      2 N2         -2.0593    2.4578   49.5418 N.am    1  ZINC000550782577   -0.5900
      3 C3         -2.3262    3.2763   50.5787 C.2     1  ZINC000550782577    0.5800
      4 O4         -1.4513    3.9878   51.0322 O.2     1  ZINC000550782577   -0.5400
      5 C5         -3.6840    3.3087   51.1650 C.ar    1  ZINC000550782577    0.0300
      6 C6         -4.7945    3.4109   50.3281 C.ar    1  ZINC000550782577   -0.0600
      7 C7         -6.0594    3.4402   50.8880 C.ar    1  ZINC000550782577   -0.1200
      8 C8         -6.1733    3.3661   52.2732 C.ar    1  ZINC000550782577    0.1100
      9 O9         -7.3949    3.3912   52.8640 O.3     1  ZINC000550782577   -0.3000
     10 C10        -7.8195    2.1988   53.5272 C.3     1  ZINC000550782577    0.1000
     11 C11        -7.7548    2.4068   55.0415 C.3     1  ZINC000550782577   -0.2000
     12 C12        -9.2572    1.8721   53.1182 C.3     1  ZINC000550782577   -0.1400
     13 C13        -6.9011    1.0407   53.1317 C.3     1  ZINC000550782577   -0.2000
     14 C14        -5.0190    3.2655   53.0461 C.ar    1  ZINC000550782577   -0.0100
     15 N15        -3.8328    3.2347   52.4828 N.ar    1  ZINC000550782577   -0.4100
     16 C16        -0.7146    2.4258   48.9611 C.3     1  ZINC000550782577    0.1400
     17 H17        -0.0967    3.1952   49.4239 H       1  ZINC000550782577    0.1100
     18 C18        -0.0844    1.0478   49.1944 C.3     1  ZINC000550782577   -0.1300
     19 C19         1.3889    1.1183   48.7975 C.3     1  ZINC000550782577   -0.0800
     20 C20         1.5377    1.7005   47.4163 C.ar    1  ZINC000550782577   -0.0800
     21 C21         2.7398    1.4924   46.7529 C.ar    1  ZINC000550782577   -0.1200
     22 C22         2.9402    2.0049   45.4877 C.ar    1  ZINC000550782577   -0.1200
     23 C23         1.9371    2.7321   44.8749 C.ar    1  ZINC000550782577   -0.1200
     24 C24         0.7411    2.9380   45.5314 C.ar    1  ZINC000550782577   -0.1200
     25 C25         0.5361    2.4200   46.8034 C.ar    1  ZINC000550782577   -0.0700
     26 C26        -0.7985    2.6700   47.4557 C.3     1  ZINC000550782577   -0.0900
     27 H27        -3.7140    2.1699   48.2855 H       1  ZINC000550782577    0.0600
     28 H28        -2.6623    0.7480   48.4874 H       1  ZINC000550782577    0.0600
     29 H29        -3.7499    1.2449   49.8058 H       1  ZINC000550782577    0.1100
     30 H30        -4.6690    3.4667   49.2569 H       1  ZINC000550782577    0.1600
     31 H31        -6.9380    3.5191   50.2648 H       1  ZINC000550782577    0.1500
     32 H32        -8.6634    2.9053   55.3790 H       1  ZINC000550782577    0.0700
     33 H33        -7.6649    1.4404   55.5375 H       1  ZINC000550782577    0.0800
     34 H34        -6.8898    3.0230   55.2870 H       1  ZINC000550782577    0.0800
     35 H35        -9.3033    1.7239   52.0393 H       1  ZINC000550782577    0.0700
     36 H36        -9.5811    0.9625   53.6242 H       1  ZINC000550782577    0.0800
     37 H37        -9.9115    2.6972   53.3999 H       1  ZINC000550782577    0.0700
     38 H38        -5.8777    1.2714   53.4272 H       1  ZINC000550782577    0.0800
     39 H39        -7.2279    0.1301   53.6340 H       1  ZINC000550782577    0.0800
     40 H40        -6.9437    0.8955   52.0523 H       1  ZINC000550782577    0.0700
     41 H41        -5.1005    3.2077   54.1214 H       1  ZINC000550782577    0.1900
     42 H42        -0.1683    0.7793   50.2475 H       1  ZINC000550782577    0.0700
     43 H43        -0.5940    0.3028   48.5834 H       1  ZINC000550782577    0.0700
     44 H44         1.9238    1.7447   49.5113 H       1  ZINC000550782577    0.0800
     45 H45         1.8134    0.1144   48.8121 H       1  ZINC000550782577    0.0800
     46 H46         3.5243    0.9251   47.2315 H       1  ZINC000550782577    0.1200
     47 H47         3.8777    1.8386   44.9779 H       1  ZINC000550782577    0.1200
     48 H48         2.0891    3.1383   43.8858 H       1  ZINC000550782577    0.1200
     49 H49        -0.0419    3.5067   45.0521 H       1  ZINC000550782577    0.1200
     50 H50        -1.5410    1.9989   47.0240 H       1  ZINC000550782577    0.0800
     51 H51        -1.0994    3.7019   47.2748 H       1  ZINC000550782577    0.0800
@<TRIPOS>BOND
     1     1     2    1
     2     1    27    1
     3     1    28    1
     4     1    29    1
     5     2     3   am
     6     2    16    1
     7     3     4    2
     8     3     5    1
     9     5    15   ar
    10     5     6   ar
    11     6     7   ar
    12     6    30    1
    13     7     8   ar
    14     7    31    1
    15     8     9    1
    16     8    14   ar
    17     9    10    1
    18    10    11    1
    19    10    12    1
    20    10    13    1
    21    11    32    1
    22    11    33    1
    23    11    34    1
    24    12    35    1
    25    12    36    1
    26    12    37    1
    27    13    38    1
    28    13    39    1
    29    13    40    1
    30    14    15   ar
    31    14    41    1
    32    16    17    1
    33    16    26    1
    34    16    18    1
    35    18    19    1
    36    18    42    1
    37    18    43    1
    38    19    20    1
    39    19    44    1
    40    19    45    1
    41    20    25   ar
    42    20    21   ar
    43    21    22   ar
    44    21    46    1
    45    22    23   ar
    46    22    47    1
    47    23    24   ar
    48    23    48    1
    49    24    25   ar
    50    24    49    1
    51    25    26    1
    52    26    50    1
    53    26    51    1
@<TRIPOS>SUBSTRUCTURE
     1 ZINC000550782577        1 TEMP              0 ****  ****    0 ROOT


##########                                Name:    ZINC000154446008
##########                DOCK_Rotatable_Bonds:                   5
##########                         Heavy_Atoms:                  24
##########                    Molecular_Weight:              349.41
##########                DOCK_Rotatable_Bonds:                   5
##########                       Formal_Charge:          -0.0199999
##########                     HBond_Acceptors:                   8
##########                        HBond_Donors:                   0
##########                         Heavy_Atoms:                  24
##########                          Grid_Score:          -22.721495
##########                     Grid_vdw_energy:          -23.998743
##########                      Grid_es_energy:            1.277248
##########           Internal_energy_repulsive:           15.708744

@<TRIPOS>MOLECULE
ZINC000154446008
 43 45 1 0 0
SMALL
USER_CHARGES


@<TRIPOS>ATOM
      1 O1         -4.3047    5.1142   50.7661 O.2     1  ZINC000154446008   -0.5000
      2 C2         -4.4374    3.9198   50.5743 C.2     1  ZINC000154446008    0.5900
      3 C3         -3.3351    3.1427   50.0000 C.2     1  ZINC000154446008   -0.2300
      4 C4         -3.3667    2.4892   48.8003 C.2     1  ZINC000154446008   -0.0600
      5 C5         -2.1926    1.8379   48.5050 C.2     1  ZINC000154446008   -0.0500
      6 C6         -1.2318    1.9527   49.4293 C.2     1  ZINC000154446008   -0.2100
      7 N7          0.1106    1.3376   49.3247 N.pl3   1  ZINC000154446008    0.0500
      8 O8          0.4606    0.8131   48.2826 O.2     1  ZINC000154446008   -0.1300
      9 O9          0.8650    1.3558   50.2808 O.2     1  ZINC000154446008   -0.1500
     10 S10        -1.7579    2.9085   50.7411 S.3     1  ZINC000154446008    0.3500
     11 N11        -5.5961    3.3105   50.8951 N.am    1  ZINC000154446008   -0.6100
     12 C12        -5.7662    1.8666   50.6803 C.3     1  ZINC000154446008    0.0800
     13 C13        -6.1776    1.2188   52.0082 C.3     1  ZINC000154446008    0.0900
     14 N14        -7.2931    1.9862   52.5794 N.am    1  ZINC000154446008   -0.6100
     15 C15        -8.4515    1.3767   52.9011 C.2     1  ZINC000154446008    0.5500
     16 O16        -8.5803    0.1811   52.7192 O.2     1  ZINC000154446008   -0.5300
     17 C17        -9.5596    2.1575   53.4721 C.2     1  ZINC000154446008   -0.1500
     18 C18       -10.3022    2.8702   52.6529 C.2     1  ZINC000154446008   -0.1100
     19 C19       -11.4571    3.7194   53.0978 C.3     1  ZINC000154446008   -0.1000
     20 C20       -11.8989    3.3120   54.5049 C.3     1  ZINC000154446008   -0.1200
     21 C21       -10.6605    3.2597   55.4080 C.3     1  ZINC000154446008   -0.1200
     22 C22        -9.7815    2.0902   54.9550 C.3     1  ZINC000154446008   -0.0700
     23 C23        -7.1230    3.4301   52.7942 C.3     1  ZINC000154446008    0.1000
     24 C24        -6.7097    4.0769   51.4716 C.3     1  ZINC000154446008    0.1000
     25 H25        -4.2282    2.4849   48.1491 H       1  ZINC000154446008    0.1800
     26 H26        -2.0559    1.2745   47.5938 H       1  ZINC000154446008    0.1800
     27 H27        -6.5427    1.6967   49.9344 H       1  ZINC000154446008    0.0900
     28 H28        -4.8260    1.4343   50.3381 H       1  ZINC000154446008    0.0900
     29 H29        -6.4935    0.1906   51.8313 H       1  ZINC000154446008    0.1100
     30 H30        -5.3338    1.2312   52.6981 H       1  ZINC000154446008    0.0800
     31 H31       -10.0670    2.8430   51.5991 H       1  ZINC000154446008    0.1100
     32 H32       -11.1547    4.7665   53.1031 H       1  ZINC000154446008    0.0900
     33 H33       -12.2892    3.5890   52.4059 H       1  ZINC000154446008    0.0800
     34 H34       -12.6051    4.0456   54.8938 H       1  ZINC000154446008    0.0700
     35 H35       -12.3692    2.3292   54.4709 H       1  ZINC000154446008    0.0700
     36 H36       -10.1054    4.1938   55.3228 H       1  ZINC000154446008    0.0700
     37 H37       -10.9679    3.1062   56.4425 H       1  ZINC000154446008    0.0700
     38 H38       -10.2707    1.1503   55.2105 H       1  ZINC000154446008    0.0800
     39 H39        -8.8186    2.1438   55.4631 H       1  ZINC000154446008    0.0700
     40 H40        -8.0632    3.8623   53.1364 H       1  ZINC000154446008    0.1100
     41 H41        -6.3465    3.6000   53.5401 H       1  ZINC000154446008    0.0800
     42 H42        -6.3940    5.1048   51.6499 H       1  ZINC000154446008    0.1100
     43 H43        -7.5518    4.0651   50.7797 H       1  ZINC000154446008    0.0800
@<TRIPOS>BOND
     1     1     2    2
     2     2     3    1
     3     2    11   am
     4     3    10    1
     5     3     4    2
     6     4     5    1
     7     4    25    1
     8     5     6    2
     9     5    26    1
    10     6     7    1
    11     6    10    1
    12     7     8    2
    13     7     9    2
    14    11    24    1
    15    11    12    1
    16    12    13    1
    17    12    27    1
    18    12    28    1
    19    13    14    1
    20    13    29    1
    21    13    30    1
    22    14    15   am
    23    14    23    1
    24    15    16    2
    25    15    17    1
    26    17    22    1
    27    17    18    2
    28    18    19    1
    29    18    31    1
    30    19    20    1
    31    19    32    1
    32    19    33    1
    33    20    21    1
    34    20    34    1
    35    20    35    1
    36    21    22    1
    37    21    36    1
    38    21    37    1
    39    22    38    1
    40    22    39    1
    41    23    24    1
    42    23    40    1
    43    23    41    1
    44    24    42    1
    45    24    43    1
@<TRIPOS>SUBSTRUCTURE
     1 ZINC000154446008        1 TEMP              0 ****  ****    0 ROOT


##########                                Name:    ZINC000965273005
##########                DOCK_Rotatable_Bonds:                   7
##########                         Heavy_Atoms:                  27
##########                    Molecular_Weight:             368.436
##########                DOCK_Rotatable_Bonds:                   7
##########                       Formal_Charge:           0.0100003
##########                     HBond_Acceptors:                   7
##########                        HBond_Donors:                   2
##########                         Heavy_Atoms:                  27
##########                          Grid_Score:          -18.259232
##########                     Grid_vdw_energy:          -17.807257
##########                      Grid_es_energy:           -0.451976
##########           Internal_energy_repulsive:           40.575420

@<TRIPOS>MOLECULE
ZINC000965273005
 51 54 1 0 0
SMALL
USER_CHARGES


@<TRIPOS>ATOM
      1 C1         -9.2924    0.1488   54.4922 C.3     1  ZINC000965273005   -0.1200
      2 C2        -10.0097    1.4367   54.1801 C.ar    1  ZINC000965273005   -0.0300
      3 C3        -11.1051    1.8166   54.9276 C.ar    1  ZINC000965273005   -0.1200
      4 C4        -11.7649    2.9990   54.6423 C.ar    1  ZINC000965273005   -0.0900
      5 C5        -11.3313    3.8079   53.6073 C.ar    1  ZINC000965273005   -0.1300
      6 C6        -10.2369    3.4397   52.8518 C.ar    1  ZINC000965273005   -0.0900
      7 C7         -9.5638    2.2510   53.1377 C.ar    1  ZINC000965273005   -0.1300
      8 C8         -8.3904    1.8502   52.3323 C.2     1  ZINC000965273005    0.5800
      9 O9         -8.2129    0.6795   52.0580 O.2     1  ZINC000965273005   -0.5200
     10 N10        -7.5177    2.7829   51.9025 N.am    1  ZINC000965273005   -0.6100
     11 C11        -7.6079    4.2306   52.1668 C.3     1  ZINC000965273005    0.0900
     12 C12        -6.1538    4.7486   52.0377 C.3     1  ZINC000965273005    0.1500
     13 H13        -6.1377    5.8073   51.7789 H       1  ZINC000965273005    0.1200
     14 N14        -5.3966    4.4999   53.2670 N.am    1  ZINC000965273005   -0.7100
     15 C15        -4.7674    5.5171   53.8883 C.2     1  ZINC000965273005    0.6000
     16 O16        -4.8270    6.6410   53.4277 O.2     1  ZINC000965273005   -0.5400
     17 C17        -4.0069    5.2671   55.1263 C.2     1  ZINC000965273005   -0.2800
     18 C18        -2.6965    4.8417   55.2112 C.2     1  ZINC000965273005    0.1000
     19 N19        -2.3908    4.7390   56.5145 N.pl3   1  ZINC000965273005   -0.3600
     20 C20        -1.0978    4.3186   57.0600 C.3     1  ZINC000965273005    0.1000
     21 N21        -3.5154    5.1021   57.2639 N.2     1  ZINC000965273005   -0.3000
     22 C22        -4.4810    5.4240   56.4480 C.2     1  ZINC000965273005    0.1700
     23 C23        -5.8631    5.8742   56.8454 C.3     1  ZINC000965273005   -0.0800
     24 C24        -6.5265    5.1609   58.0253 C.3     1  ZINC000965273005   -0.1700
     25 C25        -6.0132    6.5931   58.1877 C.3     1  ZINC000965273005   -0.1600
     26 C26        -5.6171    3.8819   50.8680 C.3     1  ZINC000965273005    0.0900
     27 H27        -5.9046    4.3097   49.9075 H       1  ZINC000965273005    0.0900
     28 O28        -4.1975    3.7419   50.9524 O.3     1  ZINC000965273005   -0.5500
     29 C29        -6.3147    2.5248   51.0978 C.3     1  ZINC000965273005    0.0600
     30 H30        -8.4449    0.3541   55.1462 H       1  ZINC000965273005    0.0800
     31 H31        -9.9776   -0.5374   54.9899 H       1  ZINC000965273005    0.0700
     32 H32        -8.9358   -0.3021   53.5661 H       1  ZINC000965273005    0.0700
     33 H33       -11.4486    1.1895   55.7370 H       1  ZINC000965273005    0.1300
     34 H34       -12.6224    3.2914   55.2302 H       1  ZINC000965273005    0.1300
     35 H35       -11.8506    4.7295   53.3898 H       1  ZINC000965273005    0.1300
     36 H36        -9.8996    4.0719   52.0438 H       1  ZINC000965273005    0.1300
     37 H37        -8.2491    4.7118   51.4284 H       1  ZINC000965273005    0.0900
     38 H38        -7.9863    4.4095   53.1733 H       1  ZINC000965273005    0.0900
     39 H39        -5.3480    3.6032   53.6337 H       1  ZINC000965273005    0.4000
     40 H40        -2.0381    4.6296   54.3816 H       1  ZINC000965273005    0.1800
     41 H41        -0.4603    5.1919   57.1979 H       1  ZINC000965273005    0.0800
     42 H42        -1.2515    3.8256   58.0200 H       1  ZINC000965273005    0.1000
     43 H43        -0.6197    3.6253   56.3680 H       1  ZINC000965273005    0.0900
     44 H44        -6.5058    6.1978   56.0267 H       1  ZINC000965273005    0.1400
     45 H45        -7.6058    5.0148   57.9829 H       1  ZINC000965273005    0.1000
     46 H46        -5.9631    4.3660   58.5141 H       1  ZINC000965273005    0.1000
     47 H47        -5.1123    6.7403   58.7833 H       1  ZINC000965273005    0.0900
     48 H48        -6.7549    7.3892   58.2521 H       1  ZINC000965273005    0.1000
     49 H49        -3.7215    4.5823   50.9987 H       1  ZINC000965273005    0.3900
     50 H50        -5.6449    1.8491   51.6297 H       1  ZINC000965273005    0.0800
     51 H51        -6.6015    2.0886   50.1408 H       1  ZINC000965273005    0.0800
@<TRIPOS>BOND
     1     1     2    1
     2     1    30    1
     3     1    31    1
     4     1    32    1
     5     2     7   ar
     6     2     3   ar
     7     3     4   ar
     8     3    33    1
     9     4     5   ar
    10     4    34    1
    11     5     6   ar
    12     5    35    1
    13     6     7   ar
    14     6    36    1
    15     7     8    1
    16     8     9    2
    17     8    10   am
    18    10    29    1
    19    10    11    1
    20    11    12    1
    21    11    37    1
    22    11    38    1
    23    12    13    1
    24    12    14    1
    25    12    26    1
    26    14    15   am
    27    14    39    1
    28    15    16    2
    29    15    17    1
    30    17    22    1
    31    17    18    2
    32    18    19    1
    33    18    40    1
    34    19    20    1
    35    19    21    1
    36    20    41    1
    37    20    42    1
    38    20    43    1
    39    21    22    2
    40    22    23    1
    41    23    25    1
    42    23    24    1
    43    23    44    1
    44    24    25    1
    45    24    45    1
    46    24    46    1
    47    25    47    1
    48    25    48    1
    49    26    27    1
    50    26    28    1
    51    26    29    1
    52    28    49    1
    53    29    50    1
    54    29    51    1
@<TRIPOS>SUBSTRUCTURE
     1 ZINC000965273005        1 TEMP              0 ****  ****    0 ROOT

