
##########                                Name:     oleObject80.pdb
##########                DOCK_Rotatable_Bonds:                  14
##########                         Heavy_Atoms:                  51
##########                    Molecular_Weight:             703.283
##########                DOCK_Rotatable_Bonds:                  14
##########                       Formal_Charge:         0.000299793
##########                     HBond_Acceptors:                  10
##########                        HBond_Donors:                   3
##########                         Heavy_Atoms:                  51
##########                          Grid_Score:          -42.430531
##########                     Grid_vdw_energy:          -41.057365
##########                      Grid_es_energy:           -1.373163
##########           Internal_energy_repulsive:           39.543732

@<TRIPOS>MOLECULE
oleObject80.pdb
 94 99 1 0 0
SMALL
NO_CHARGES


@<TRIPOS>ATOM
      1 C         -10.3186   -1.6393   59.0445 C.ar    1  UNL        -0.0620
      2 C         -11.3124   -2.1215   59.9080 C.ar    1  UNL        -0.0590
      3 C         -12.5059   -1.4004   60.1065 C.ar    1  UNL        -0.0456
      4 C         -12.7063   -0.1717   59.4272 C.ar    1  UNL        -0.0185
      5 C         -11.6961    0.2993   58.5592 C.ar    1  UNL        -0.0565
      6 C         -10.5120   -0.4280   58.3687 C.ar    1  UNL        -0.0619
      7 C         -13.9967    0.6422   59.6312 C.3     1  UNL         0.0931
      8 C         -14.1410    1.2347   61.0444 C.ar    1  UNL         0.0683
      9 C         -13.0338    1.7944   61.7312 C.ar    1  UNL        -0.0272
     10 C         -13.2385    2.3125   63.0238 C.ar    1  UNL        -0.0559
     11 C         -14.5226    2.2636   63.5850 C.ar    1  UNL        -0.0435
     12 C         -15.5633    1.7005   62.8324 C.ar    1  UNL         0.0272
     13 N         -15.3776    1.2025   61.5958 N.ar    1  UNL        -0.2587
     14 C         -11.6395    1.8537   61.1168 C.3     1  UNL        -0.0379
     15 N         -14.2736    1.6253   58.5443 N.am    1  UNL        -0.2918
     16 C         -14.8500    1.2083   57.3391 C.2     1  UNL         0.2180
     17 O         -15.3748    0.1104   57.2472 O.2     1  UNL        -0.2772
     18 C         -15.1036    2.2946   56.2640 C.3     1  UNL         0.0385
     19 C         -16.2528    1.9026   55.3029 C.3     1  UNL        -0.0289
     20 C         -15.8289    0.7888   54.3237 C.3     1  UNL        -0.0010
     21 N         -14.6421    1.1806   53.5336 N.4     1  UNL        -0.3010
     22 C         -13.4822    1.5594   54.3761 C.3     1  UNL        -0.0010
     23 C         -13.8372    2.6350   55.4339 C.3     1  UNL        -0.0289
     24 C         -14.3315    0.1779   52.4906 C.3     1  UNL         0.0222
     25 C         -13.2197    0.6249   51.5192 C.3     1  UNL         0.0661
     26 O         -11.9541    0.3055   52.1243 O.3     1  UNL        -0.3432
     27 C         -10.8350    1.1096   52.0238 C.ar    1  UNL         0.0937
     28 C         -10.9268    2.4925   51.7664 C.ar    1  UNL        -0.0284
     29 C          -9.7627    3.2727   51.6706 C.ar    1  UNL        -0.0381
     30 C          -8.4937    2.6937   51.8429 C.ar    1  UNL         0.0319
     31 C          -8.4029    1.3081   52.0781 C.ar    1  UNL        -0.0194
     32 C          -9.5636    0.5228   52.1735 C.ar    1  UNL         0.0727
     33 CL         -9.3976   -1.1975   52.4716 Cl      1  UNL        -0.0814
     34 N          -7.3650    3.5023   51.7220 N.pl3   1  UNL        -0.3136
     35 C          -6.0479    3.2085   51.3704 C.ar    1  UNL         0.0489
     36 C          -5.7818    2.5761   50.1432 C.ar    1  UNL         0.0488
     37 N          -4.5374    2.2753   49.7212 N.ar    1  UNL        -0.2543
     38 C          -3.4689    2.5968   50.4833 C.ar    1  UNL         0.0703
     39 C          -3.6518    3.2535   51.7280 C.ar    1  UNL        -0.0339
     40 C          -4.9473    3.5653   52.1710 C.ar    1  UNL        -0.0371
     41 C          -2.1115    2.2340   49.9426 C.ar    1  UNL         0.0009
     42 C          -1.8085    0.9144   49.5164 C.ar    1  UNL        -0.0402
     43 C          -0.5406    0.5618   49.0086 C.ar    1  UNL         0.0375
     44 C           0.4566    1.5556   48.9241 C.ar    1  UNL        -0.0496
     45 C           0.1871    2.8660   49.3426 C.ar    1  UNL        -0.0608
     46 C          -1.0779    3.2007   49.8466 C.ar    1  UNL        -0.0528
     47 C          -0.2856   -0.8615   48.5747 C.2     1  UNL         0.2403
     48 O          -1.1427   -1.7251   48.6307 O.2     1  UNL        -0.2722
     49 N           0.9726   -1.1666   48.1004 N.am    1  UNL        -0.3251
     50 C         -13.9915    3.0498   58.8318 C.3     1  UNL         0.0037
     51 C         -13.5535   -1.9764   61.0549 C.3     1  UNL        -0.0394
     52 H          -9.4025   -2.2044   58.8986 H       1  UNL         0.0623
     53 H         -11.1521   -3.0632   60.4255 H       1  UNL         0.0626
     54 H         -11.8232    1.2307   58.0168 H       1  UNL         0.0627
     55 H          -9.7461   -0.0523   57.6962 H       1  UNL         0.0623
     56 H         -14.7972   -0.0991   59.5673 H       1  UNL         0.0626
     57 H         -12.4161    2.7466   63.5854 H       1  UNL         0.0627
     58 H         -14.7083    2.6558   64.5805 H       1  UNL         0.0639
     59 H         -16.5757    1.6457   63.2304 H       1  UNL         0.0840
     60 H         -11.2173    0.8474   61.0028 H       1  UNL         0.0280
     61 H         -10.9469    2.4318   61.7410 H       1  UNL         0.0280
     62 H         -11.6604    2.3287   60.1282 H       1  UNL         0.0280
     63 H         -15.3886    3.2157   56.7854 H       1  UNL         0.0402
     64 H         -16.5529    2.7853   54.7234 H       1  UNL         0.0288
     65 H         -17.1388    1.5834   55.8622 H       1  UNL         0.0288
     66 H         -16.6711    0.5767   53.6523 H       1  UNL         0.0431
     67 H         -15.6161   -0.1282   54.8899 H       1  UNL         0.0431
     68 H         -12.6728    1.9586   53.7537 H       1  UNL         0.0431
     69 H         -13.0928    0.6666   54.8807 H       1  UNL         0.0431
     70 H         -14.0092    3.5846   54.9107 H       1  UNL         0.0288
     71 H         -12.9814    2.7988   56.1012 H       1  UNL         0.0288
     72 H         -15.2345   -0.0156   51.8969 H       1  UNL         0.0455
     73 H         -14.0366   -0.7698   52.9600 H       1  UNL         0.0455
     74 H         -13.2868    1.7046   51.3384 H       1  UNL         0.0586
     75 H         -13.3310    0.0913   50.5667 H       1  UNL         0.0586
     76 H         -11.8908    2.9735   51.6371 H       1  UNL         0.0652
     77 H          -9.8489    4.3372   51.4706 H       1  UNL         0.0644
     78 H          -7.4335    0.8281   52.1673 H       1  UNL         0.0659
     79 H          -7.5288    4.4779   51.9353 H       1  UNL         0.1528
     80 H          -6.5948    2.2910   49.4768 H       1  UNL         0.0861
     81 H          -2.8065    3.5144   52.3551 H       1  UNL         0.0646
     82 H          -5.0829    4.0910   53.1109 H       1  UNL         0.0644
     83 H          -2.5646    0.1412   49.5962 H       1  UNL         0.0638
     84 H           1.4450    1.3259   48.5387 H       1  UNL         0.0631
     85 H           0.9604    3.6261   49.2754 H       1  UNL         0.0623
     86 H          -1.2567    4.2265   50.1562 H       1  UNL         0.0630
     87 H           1.1859   -2.1079   47.7992 H       1  UNL         0.1458
     88 H           1.6718   -0.4361   48.0586 H       1  UNL         0.1458
     89 H         -13.4678    3.1774   59.7849 H       1  UNL         0.0433
     90 H         -14.9280    3.6166   58.8877 H       1  UNL         0.0433
     91 H         -13.3655    3.4673   58.0333 H       1  UNL         0.0433
     92 H         -13.2463   -2.9501   61.4563 H       1  UNL         0.0280
     93 H         -14.5125   -2.1261   60.5442 H       1  UNL         0.0280
     94 H         -13.7228   -1.3116   61.9109 H       1  UNL         0.0280
@<TRIPOS>BOND
     1     1     2   ar
     2     1     6   ar
     3     1    52    1
     4     2     3   ar
     5     2    53    1
     6     3     4   ar
     7     3    51    1
     8     4     5   ar
     9     4     7    1
    10     5     6   ar
    11     5    54    1
    12     6    55    1
    13     7     8    1
    14     7    15    1
    15     7    56    1
    16     8     9   ar
    17     8    13   ar
    18     9    10   ar
    19     9    14    1
    20    10    11   ar
    21    10    57    1
    22    11    12   ar
    23    11    58    1
    24    12    13   ar
    25    12    59    1
    26    14    60    1
    27    14    61    1
    28    14    62    1
    29    15    16   am
    30    15    50    1
    31    16    17    2
    32    16    18    1
    33    18    19    1
    34    18    23    1
    35    18    63    1
    36    19    20    1
    37    19    64    1
    38    19    65    1
    39    20    21    1
    40    20    66    1
    41    20    67    1
    42    21    22    1
    43    21    24    1
    44    22    23    1
    45    22    68    1
    46    22    69    1
    47    23    70    1
    48    23    71    1
    49    24    25    1
    50    24    72    1
    51    24    73    1
    52    25    26    1
    53    25    74    1
    54    25    75    1
    55    26    27    1
    56    27    28   ar
    57    27    32   ar
    58    28    29   ar
    59    28    76    1
    60    29    30   ar
    61    29    77    1
    62    30    31   ar
    63    30    34    1
    64    31    32   ar
    65    31    78    1
    66    32    33    1
    67    34    35    1
    68    34    79    1
    69    35    36   ar
    70    35    40   ar
    71    36    37   ar
    72    36    80    1
    73    37    38   ar
    74    38    39   ar
    75    38    41    1
    76    39    40   ar
    77    39    81    1
    78    40    82    1
    79    41    42   ar
    80    41    46   ar
    81    42    43   ar
    82    42    83    1
    83    43    44   ar
    84    43    47    1
    85    44    45   ar
    86    44    84    1
    87    45    46   ar
    88    45    85    1
    89    46    86    1
    90    47    48    2
    91    47    49   am
    92    49    87    1
    93    49    88    1
    94    50    89    1
    95    50    90    1
    96    50    91    1
    97    51    92    1
    98    51    93    1
    99    51    94    1
@<TRIPOS>SUBSTRUCTURE
     1 UNL         1 TEMP              0 ****  ****    0 ROOT


##########                                Name:    ZINC000512699033
##########                DOCK_Rotatable_Bonds:                   9
##########                         Heavy_Atoms:                  30
##########                    Molecular_Weight:              405.54
##########                DOCK_Rotatable_Bonds:                   9
##########                       Formal_Charge:           0.0199988
##########                     HBond_Acceptors:                   5
##########                        HBond_Donors:                   2
##########                         Heavy_Atoms:                  30
##########                          Grid_Score:          -39.434704
##########                     Grid_vdw_energy:          -38.558678
##########                      Grid_es_energy:           -0.876025
##########           Internal_energy_repulsive:           14.748880

@<TRIPOS>MOLECULE
ZINC000512699033
 61 64 1 0 0
SMALL
USER_CHARGES


@<TRIPOS>ATOM
      1 O1         -5.0801    4.0376   50.7176 O.2     1  ZINC000512699033   -0.5100
      2 C2         -5.1940    2.8305   50.6839 C.2     1  ZINC000512699033    0.5200
      3 C3         -6.5568    2.2064   50.5277 C.3     1  ZINC000512699033   -0.1500
      4 C4         -6.6994    1.0409   51.5086 C.3     1  ZINC000512699033    0.1300
      5 N5         -8.0352    1.0689   52.1095 N.am    1  ZINC000512699033   -0.7300
      6 C6         -8.7318   -0.0754   52.2569 C.2     1  ZINC000512699033    0.5200
      7 O7         -8.2525   -1.1284   51.8935 O.2     1  ZINC000512699033   -0.5300
      8 C8        -10.1068   -0.0463   52.8734 C.3     1  ZINC000512699033   -0.1100
      9 C9        -10.3216    1.2948   53.5776 C.3     1  ZINC000512699033   -0.1100
     10 C10       -11.7175    1.3243   54.2035 C.3     1  ZINC000512699033   -0.1200
     11 C11       -12.7713    1.1487   53.1083 C.3     1  ZINC000512699033   -0.1200
     12 C12       -12.5564   -0.1926   52.4040 C.3     1  ZINC000512699033   -0.1200
     13 C13       -11.1606   -0.2220   51.7782 C.3     1  ZINC000512699033   -0.1000
     14 N14        -4.1013    2.0475   50.7805 N.am    1  ZINC000512699033   -0.6600
     15 C15        -2.8359    2.6271   50.9255 C.ar    1  ZINC000512699033    0.1700
     16 C16        -2.5914    3.5125   51.9668 C.ar    1  ZINC000512699033   -0.1400
     17 C17        -1.3410    4.0825   52.1075 C.ar    1  ZINC000512699033   -0.1000
     18 C18        -0.3337    3.7726   51.2124 C.ar    1  ZINC000512699033   -0.1400
     19 C19        -0.5742    2.8912   50.1742 C.ar    1  ZINC000512699033   -0.0900
     20 C20        -1.8203    2.3136   50.0315 C.ar    1  ZINC000512699033   -0.1200
     21 C21        -2.0814    1.3532   48.8999 C.3     1  ZINC000512699033    0.0900
     22 N22        -0.8099    0.7743   48.4457 N.3     1  ZINC000512699033   -0.4700
     23 C23        -0.8879   -0.7018   48.3942 C.3     1  ZINC000512699033    0.0500
     24 C24         0.0760   -1.0512   47.2372 C.3     1  ZINC000512699033   -0.0900
     25 C25         0.0618    0.2088   46.3950 C.ar    1  ZINC000512699033   -0.1400
     26 C26         0.4719    0.4486   45.1006 C.ar    1  ZINC000512699033   -0.0800
     27 C27         0.3424    1.7135   44.5553 C.ar    1  ZINC000512699033   -0.1400
     28 C28        -0.1995    2.7371   45.3105 C.ar    1  ZINC000512699033   -0.0900
     29 C29        -0.6092    2.5029   46.6068 C.ar    1  ZINC000512699033   -0.1400
     30 C30        -0.4793    1.2323   47.1643 C.ar    1  ZINC000512699033    0.0900
     31 H31        -7.3240    2.9522   50.7356 H       1  ZINC000512699033    0.1100
     32 H32        -6.6736    1.8394   49.5080 H       1  ZINC000512699033    0.1000
     33 H33        -6.5598    0.0995   50.9770 H       1  ZINC000512699033    0.0800
     34 H34        -5.9467    1.1309   52.2917 H       1  ZINC000512699033    0.0800
     35 H35        -8.4181    1.9109   52.4013 H       1  ZINC000512699033    0.4000
     36 H36       -10.1972   -0.8557   53.5979 H       1  ZINC000512699033    0.1000
     37 H37        -9.5709    1.4200   54.3578 H       1  ZINC000512699033    0.0700
     38 H38       -10.2312    2.1042   52.8532 H       1  ZINC000512699033    0.0700
     39 H39       -11.8080    0.5150   54.9280 H       1  ZINC000512699033    0.0600
     40 H40       -11.8707    2.2798   54.7052 H       1  ZINC000512699033    0.0700
     41 H41       -13.7657    1.1696   53.5542 H       1  ZINC000512699033    0.0600
     42 H42       -12.6808    1.9580   52.3838 H       1  ZINC000512699033    0.0600
     43 H43       -12.6469   -1.0019   53.1285 H       1  ZINC000512699033    0.0600
     44 H44       -13.3072   -0.3176   51.6238 H       1  ZINC000512699033    0.0700
     45 H45       -11.0700    0.5874   51.0538 H       1  ZINC000512699033    0.0700
     46 H46       -11.0074   -1.1775   51.2765 H       1  ZINC000512699033    0.0700
     47 H47        -4.1920    1.0823   50.7494 H       1  ZINC000512699033    0.4200
     48 H48        -3.3780    3.7554   52.6659 H       1  ZINC000512699033    0.1500
     49 H49        -1.1502    4.7712   52.9171 H       1  ZINC000512699033    0.1300
     50 H50         0.6428    4.2202   51.3241 H       1  ZINC000512699033    0.1200
     51 H51         0.2147    2.6511   49.4767 H       1  ZINC000512699033    0.1200
     52 H52        -2.7409    0.5565   49.2443 H       1  ZINC000512699033    0.0600
     53 H53        -2.5542    1.8846   48.0740 H       1  ZINC000512699033    0.0900
     54 H54        -0.5430   -1.1401   49.3307 H       1  ZINC000512699033    0.1000
     55 H55        -1.9023   -1.0276   48.1641 H       1  ZINC000512699033    0.0600
     56 H56         1.0782   -1.2506   47.6166 H       1  ZINC000512699033    0.0900
     57 H57        -0.2980   -1.9013   46.6665 H       1  ZINC000512699033    0.0800
     58 H58         0.8950   -0.3518   44.5119 H       1  ZINC000512699033    0.1200
     59 H59         0.6645    1.9011   43.5417 H       1  ZINC000512699033    0.1300
     60 H60        -0.3019    3.7240   44.8840 H       1  ZINC000512699033    0.1300
     61 H61        -1.0314    3.3069   47.1916 H       1  ZINC000512699033    0.1200
@<TRIPOS>BOND
     1     1     2    2
     2     2     3    1
     3     2    14   am
     4     3     4    1
     5     3    31    1
     6     3    32    1
     7     4     5    1
     8     4    33    1
     9     4    34    1
    10     5     6   am
    11     5    35    1
    12     6     7    2
    13     6     8    1
    14     8    13    1
    15     8     9    1
    16     8    36    1
    17     9    10    1
    18     9    37    1
    19     9    38    1
    20    10    11    1
    21    10    39    1
    22    10    40    1
    23    11    12    1
    24    11    41    1
    25    11    42    1
    26    12    13    1
    27    12    43    1
    28    12    44    1
    29    13    45    1
    30    13    46    1
    31    14    15    1
    32    14    47    1
    33    15    20   ar
    34    15    16   ar
    35    16    17   ar
    36    16    48    1
    37    17    18   ar
    38    17    49    1
    39    18    19   ar
    40    18    50    1
    41    19    20   ar
    42    19    51    1
    43    20    21    1
    44    21    22    1
    45    21    52    1
    46    21    53    1
    47    22    30    1
    48    22    23    1
    49    23    24    1
    50    23    54    1
    51    23    55    1
    52    24    25    1
    53    24    56    1
    54    24    57    1
    55    25    30   ar
    56    25    26   ar
    57    26    27   ar
    58    26    58    1
    59    27    28   ar
    60    27    59    1
    61    28    29   ar
    62    28    60    1
    63    29    30   ar
    64    29    61    1
@<TRIPOS>SUBSTRUCTURE
     1 ZINC000512699033        1 TEMP              0 ****  ****    0 ROOT


##########                                Name:    ZINC000432253027
##########                DOCK_Rotatable_Bonds:                   8
##########                         Heavy_Atoms:                  26
##########                    Molecular_Weight:             401.436
##########                DOCK_Rotatable_Bonds:                   8
##########                       Formal_Charge:         1.19209e-07
##########                     HBond_Acceptors:                  11
##########                        HBond_Donors:                   0
##########                         Heavy_Atoms:                  26
##########                          Grid_Score:          -39.303284
##########                     Grid_vdw_energy:          -38.760990
##########                      Grid_es_energy:           -0.542294
##########           Internal_energy_repulsive:            8.290163

@<TRIPOS>MOLECULE
ZINC000432253027
 40 42 1 0 0
SMALL
USER_CHARGES


@<TRIPOS>ATOM
      1 C1         -0.2832   -1.3875   48.8071 C.3     1  ZINC000432253027    0.0300
      2 O2         -1.3910   -0.5914   48.3813 O.3     1  ZINC000432253027   -0.3100
      3 C3         -1.1705    0.2753   47.3591 C.ar    1  ZINC000432253027    0.1500
      4 C4         -0.8276   -0.2017   46.1047 C.ar    1  ZINC000432253027   -0.2100
      5 C5         -0.6029    0.6814   45.0652 C.ar    1  ZINC000432253027   -0.0600
      6 C6         -0.7190    2.0452   45.2689 C.ar    1  ZINC000432253027   -0.1600
      7 C7         -1.0599    2.5361   46.5125 C.ar    1  ZINC000432253027   -0.0300
      8 C8         -1.2947    1.6546   47.5677 C.ar    1  ZINC000432253027   -0.0600
      9 C9         -1.6601    2.1740   48.9021 C.2     1  ZINC000432253027    0.1200
     10 N10        -2.8035    1.9893   49.4979 N.2     1  ZINC000432253027   -0.4600
     11 C11        -2.9503    2.5274   50.6874 C.2     1  ZINC000432253027    0.0800
     12 C12        -4.2251    2.3848   51.4784 C.3     1  ZINC000432253027   -0.0200
     13 S13        -5.6457    2.7223   50.4021 S.3     1  ZINC000432253027   -0.1700
     14 C14        -7.0644    2.3897   51.4823 C.3     1  ZINC000432253027   -0.0300
     15 C15        -7.3066    0.9038   51.5503 C.2     1  ZINC000432253027    0.2100
     16 N16        -6.4982   -0.0407   51.1350 N.2     1  ZINC000432253027   -0.2700
     17 N17        -7.0607   -1.1763   51.3671 N.2     1  ZINC000432253027   -0.0500
     18 N18        -8.2069   -0.9809   51.9197 N.2     1  ZINC000432253027   -0.0700
     19 N19        -8.3925    0.2889   52.0544 N.pl3   1  ZINC000432253027   -0.3100
     20 C20        -9.5685    0.9391   52.6378 C.3     1  ZINC000432253027    0.0700
     21 C21       -10.7933    0.0417   52.4498 C.3     1  ZINC000432253027    0.4300
     22 F22       -11.9201    0.6718   52.9887 F       1  ZINC000432253027   -0.1500
     23 F23       -10.9966   -0.1902   51.0852 F       1  ZINC000432253027   -0.1700
     24 F24       -10.5832   -1.1771   53.1037 F       1  ZINC000432253027   -0.1700
     25 C25        -1.8987    3.2087   51.1528 C.2     1  ZINC000432253027   -0.2500
     26 S26        -0.6165    3.1358   49.9459 S.3     1  ZINC000432253027    0.1600
     27 H27        -0.5947   -2.0343   49.6274 H       1  ZINC000432253027    0.1000
     28 H28         0.0661   -1.9988   47.9750 H       1  ZINC000432253027    0.0600
     29 H29         0.5238   -0.7368   49.1438 H       1  ZINC000432253027    0.0600
     30 H30        -0.7352   -1.2648   45.9388 H       1  ZINC000432253027    0.1400
     31 H31        -0.3350    0.3050   44.0890 H       1  ZINC000432253027    0.1300
     32 H32        -0.5418    2.7282   44.4512 H       1  ZINC000432253027    0.1300
     33 H33        -1.1492    3.6012   46.6675 H       1  ZINC000432253027    0.1400
     34 H34        -4.2985    1.3699   51.8694 H       1  ZINC000432253027    0.1000
     35 H35        -4.2202    3.0936   52.3065 H       1  ZINC000432253027    0.1100
     36 H36        -6.8567    2.7700   52.4824 H       1  ZINC000432253027    0.1100
     37 H37        -7.9495    2.8842   51.0822 H       1  ZINC000432253027    0.1300
     38 H38        -9.4007    1.1067   53.7017 H       1  ZINC000432253027    0.1500
     39 H39        -9.7387    1.8948   52.1419 H       1  ZINC000432253027    0.1600
     40 H40        -1.8431    3.7136   52.1059 H       1  ZINC000432253027    0.1800
@<TRIPOS>BOND
     1     1     2    1
     2     1    27    1
     3     1    28    1
     4     1    29    1
     5     2     3    1
     6     3     8   ar
     7     3     4   ar
     8     4     5   ar
     9     4    30    1
    10     5     6   ar
    11     5    31    1
    12     6     7   ar
    13     6    32    1
    14     7     8   ar
    15     7    33    1
    16     8     9    1
    17     9    26    1
    18     9    10    2
    19    10    11    1
    20    11    12    1
    21    11    25    2
    22    12    13    1
    23    12    34    1
    24    12    35    1
    25    13    14    1
    26    14    15    1
    27    14    36    1
    28    14    37    1
    29    15    19    1
    30    15    16    2
    31    16    17    1
    32    17    18    2
    33    18    19    1
    34    19    20    1
    35    20    21    1
    36    20    38    1
    37    20    39    1
    38    21    22    1
    39    21    23    1
    40    21    24    1
    41    25    26    1
    42    25    40    1
@<TRIPOS>SUBSTRUCTURE
     1 ZINC000432253027        1 TEMP              0 ****  ****    0 ROOT


##########                                Name:     oleObject17.pdb
##########                DOCK_Rotatable_Bonds:                   8
##########                         Heavy_Atoms:                  29
##########                    Molecular_Weight:             435.393
##########                DOCK_Rotatable_Bonds:                   8
##########                       Formal_Charge:         0.000400059
##########                     HBond_Acceptors:                   6
##########                        HBond_Donors:                   0
##########                         Heavy_Atoms:                  29
##########                          Grid_Score:          -38.266411
##########                     Grid_vdw_energy:          -38.173092
##########                      Grid_es_energy:           -0.093321
##########           Internal_energy_repulsive:           20.407524

@<TRIPOS>MOLECULE
oleObject17.pdb
 57 59 1 0 0
SMALL
NO_CHARGES


@<TRIPOS>ATOM
      1 C          -9.9296   -0.5725   52.0681 C.3     1  UNL         0.0391
      2 C         -11.2602   -0.6453   52.8203 C.ar    1  UNL        -0.0277
      3 C         -12.4871   -0.2171   52.2534 C.ar    1  UNL        -0.0463
      4 C         -13.6661   -0.2858   53.0216 C.ar    1  UNL        -0.0590
      5 C         -13.6389   -0.7749   54.3357 C.ar    1  UNL        -0.0620
      6 C         -12.4302   -1.2148   54.8912 C.ar    1  UNL        -0.0619
      7 C         -11.2510   -1.1545   54.1339 C.ar    1  UNL        -0.0572
      8 C         -12.5809    0.3137   50.8270 C.3     1  UNL        -0.0394
      9 N          -9.2161    0.7032   52.2915 N.am    1  UNL        -0.3003
     10 C          -7.8234    0.7650   52.2515 C.2     1  UNL         0.2175
     11 O          -7.1901   -0.1389   51.7331 O.2     1  UNL        -0.2772
     12 C          -7.1812    2.1554   52.5000 C.3     1  UNL         0.0384
     13 C          -7.3758    3.1260   51.3077 C.3     1  UNL        -0.0289
     14 C          -6.5467    2.6885   50.0845 C.3     1  UNL        -0.0010
     15 N          -5.1065    2.5835   50.4058 N.4     1  UNL        -0.3010
     16 C          -4.7994    1.7292   51.5769 C.3     1  UNL        -0.0010
     17 C          -5.6631    2.0730   52.8179 C.3     1  UNL        -0.0289
     18 C          -4.2608    2.3015   49.2233 C.3     1  UNL         0.0222
     19 C          -2.7594    2.5928   49.4514 C.3     1  UNL         0.0661
     20 O          -2.0701    1.3387   49.5884 O.3     1  UNL        -0.3432
     21 C          -0.7354    1.1784   49.2684 C.ar    1  UNL         0.0937
     22 C           0.1591    2.2698   49.2294 C.ar    1  UNL        -0.0288
     23 C           1.5110    2.0651   48.9078 C.ar    1  UNL        -0.0408
     24 C           1.9770    0.7726   48.6207 C.ar    1  UNL         0.0422
     25 C           1.0932   -0.3174   48.6534 C.ar    1  UNL        -0.0221
     26 C          -0.2594   -0.1157   48.9756 C.ar    1  UNL         0.0723
     27 CL         -1.3360   -1.4996   49.0133 Cl      1  UNL        -0.0814
     28 CL          3.6626    0.5203   48.2210 Cl      1  UNL        -0.0843
     29 C         -10.0605    1.8810   52.5627 C.3     1  UNL         0.0031
     30 H         -10.0777   -0.6988   50.9899 H       1  UNL         0.0520
     31 H          -9.3016   -1.4095   52.3980 H       1  UNL         0.0520
     32 H         -14.6119    0.0426   52.6001 H       1  UNL         0.0626
     33 H         -14.5543   -0.8190   54.9190 H       1  UNL         0.0623
     34 H         -12.4061   -1.5998   55.9065 H       1  UNL         0.0623
     35 H         -10.3192   -1.4941   54.5764 H       1  UNL         0.0626
     36 H         -12.1590   -0.4008   50.1096 H       1  UNL         0.0280
     37 H         -12.0443    1.2633   50.7200 H       1  UNL         0.0280
     38 H         -13.6212    0.4925   50.5287 H       1  UNL         0.0280
     39 H          -7.6750    2.5870   53.3786 H       1  UNL         0.0402
     40 H          -7.0603    4.1338   51.6073 H       1  UNL         0.0288
     41 H          -8.4317    3.2052   51.0288 H       1  UNL         0.0288
     42 H          -6.6972    3.4142   49.2750 H       1  UNL         0.0431
     43 H          -6.9254    1.7198   49.7393 H       1  UNL         0.0431
     44 H          -3.7407    1.8386   51.8445 H       1  UNL         0.0431
     45 H          -4.9574    0.6762   51.3182 H       1  UNL         0.0431
     46 H          -5.3327    3.0434   53.2105 H       1  UNL         0.0288
     47 H          -5.4821    1.3383   53.6129 H       1  UNL         0.0288
     48 H          -4.6103    2.8993   48.3719 H       1  UNL         0.0455
     49 H          -4.3717    1.2456   48.9447 H       1  UNL         0.0455
     50 H          -2.6276    3.1829   50.3655 H       1  UNL         0.0586
     51 H          -2.3529    3.1565   48.6030 H       1  UNL         0.0586
     52 H          -0.1796    3.2781   49.4441 H       1  UNL         0.0651
     53 H           2.1949    2.9088   48.8803 H       1  UNL         0.0639
     54 H           1.4551   -1.3171   48.4306 H       1  UNL         0.0655
     55 H         -10.9526    1.5861   53.1296 H       1  UNL         0.0433
     56 H         -10.3760    2.3437   51.6198 H       1  UNL         0.0433
     57 H          -9.5059    2.6159   53.1591 H       1  UNL         0.0433
@<TRIPOS>BOND
     1     1     2    1
     2     1     9    1
     3     1    30    1
     4     1    31    1
     5     2     3   ar
     6     2     7   ar
     7     3     4   ar
     8     3     8    1
     9     4     5   ar
    10     4    32    1
    11     5     6   ar
    12     5    33    1
    13     6     7   ar
    14     6    34    1
    15     7    35    1
    16     8    36    1
    17     8    37    1
    18     8    38    1
    19     9    10   am
    20     9    29    1
    21    10    11    2
    22    10    12    1
    23    12    13    1
    24    12    17    1
    25    12    39    1
    26    13    14    1
    27    13    40    1
    28    13    41    1
    29    14    15    1
    30    14    42    1
    31    14    43    1
    32    15    16    1
    33    15    18    1
    34    16    17    1
    35    16    44    1
    36    16    45    1
    37    17    46    1
    38    17    47    1
    39    18    19    1
    40    18    48    1
    41    18    49    1
    42    19    20    1
    43    19    50    1
    44    19    51    1
    45    20    21    1
    46    21    22   ar
    47    21    26   ar
    48    22    23   ar
    49    22    52    1
    50    23    24   ar
    51    23    53    1
    52    24    25   ar
    53    24    28    1
    54    25    26   ar
    55    25    54    1
    56    26    27    1
    57    29    55    1
    58    29    56    1
    59    29    57    1
@<TRIPOS>SUBSTRUCTURE
     1 UNL         1 TEMP              0 ****  ****    0 ROOT


##########                                Name:    ZINC000464139057
##########                DOCK_Rotatable_Bonds:                   9
##########                         Heavy_Atoms:                  30
##########                    Molecular_Weight:              413.56
##########                DOCK_Rotatable_Bonds:                   9
##########                       Formal_Charge:         2.38419e-07
##########                     HBond_Acceptors:                   6
##########                        HBond_Donors:                   2
##########                         Heavy_Atoms:                  30
##########                          Grid_Score:          -38.231342
##########                     Grid_vdw_energy:          -35.971546
##########                      Grid_es_energy:           -2.259795
##########           Internal_energy_repulsive:           16.744892

@<TRIPOS>MOLECULE
ZINC000464139057
 65 67 1 0 0
SMALL
USER_CHARGES


@<TRIPOS>ATOM
      1 C1          0.9704   -0.4422   49.1088 C.3     1  ZINC000464139057   -0.1800
      2 C2         -0.5525   -0.5566   49.0161 C.3     1  ZINC000464139057    0.0700
      3 H3         -0.9049   -1.3077   49.7230 H       1  ZINC000464139057    0.1200
      4 C4         -1.1889    0.7979   49.3485 C.3     1  ZINC000464139057    0.0800
      5 N5         -0.8472    1.7467   48.2770 N.am    1  ZINC000464139057   -0.6100
      6 C6         -0.3274    2.9571   48.5618 C.2     1  ZINC000464139057    0.5600
      7 O7         -0.0517    3.7271   47.6628 O.2     1  ZINC000464139057   -0.5300
      8 C8         -0.0928    3.3485   49.9682 C.ar    1  ZINC000464139057   -0.1200
      9 C9         -1.1343    3.8783   50.7315 C.ar    1  ZINC000464139057   -0.0900
     10 C10        -0.9088    4.2410   52.0432 C.ar    1  ZINC000464139057   -0.1000
     11 C11         0.3467    4.0810   52.6023 C.ar    1  ZINC000464139057   -0.0900
     12 C12         0.5858    4.4799   54.0358 C.3     1  ZINC000464139057    0.1800
     13 N13        -0.3779    3.7948   54.9006 N.am    1  ZINC000464139057   -0.7400
     14 C14         0.0036    3.3488   56.1139 C.2     1  ZINC000464139057    0.7000
     15 O15         1.1471    3.5165   56.4913 O.2     1  ZINC000464139057   -0.5900
     16 N16        -0.8826    2.7170   56.9088 N.am    1  ZINC000464139057   -0.7500
     17 C17        -0.4675    2.2307   58.2269 C.3     1  ZINC000464139057    0.1400
     18 C18        -0.2295    3.4212   59.1581 C.3     1  ZINC000464139057   -0.0900
     19 C19         0.0785    2.9201   60.5455 C.2     1  ZINC000464139057   -0.1200
     20 C20        -0.4053    3.5382   61.5758 C.2     1  ZINC000464139057   -0.1500
     21 C21        -0.1038    3.0454   62.9750 C.3     1  ZINC000464139057   -0.0900
     22 C22        -0.8776    1.7468   63.2129 C.3     1  ZINC000464139057   -0.1100
     23 C23        -0.0934    0.5517   62.7006 C.3     1  ZINC000464139057   -0.1200
     24 C24         0.0712    0.5334   61.1912 C.3     1  ZINC000464139057   -0.1100
     25 C25         0.9465    1.6933   60.7274 C.3     1  ZINC000464139057   -0.0800
     26 C26         1.3834    3.5560   51.8513 C.ar    1  ZINC000464139057   -0.1000
     27 C27         1.1699    3.1843   50.5401 C.ar    1  ZINC000464139057   -0.0700
     28 C28        -1.0894    1.3347   46.8852 C.3     1  ZINC000464139057    0.0700
     29 C29        -0.4578   -0.0458   46.6728 C.3     1  ZINC000464139057    0.0700
     30 H30         0.6274    0.0375   46.7303 H       1  ZINC000464139057    0.0700
     31 C31        -0.8568   -0.5842   45.2973 C.3     1  ZINC000464139057   -0.1500
     32 O32        -0.9227   -0.9387   47.6892 O.3     1  ZINC000464139057   -0.3700
     33 H33         1.3221    0.3091   48.4017 H       1  ZINC000464139057    0.0600
     34 H34         1.2519   -0.1491   50.1203 H       1  ZINC000464139057    0.0700
     35 H35         1.4223   -1.4051   48.8706 H       1  ZINC000464139057    0.0700
     36 H36        -2.2717    0.6892   49.4113 H       1  ZINC000464139057    0.0800
     37 H37        -0.8003    1.1625   50.2994 H       1  ZINC000464139057    0.1000
     38 H38        -2.1145    4.0044   50.2959 H       1  ZINC000464139057    0.1300
     39 H39        -1.7138    4.6511   52.6349 H       1  ZINC000464139057    0.1300
     40 H40         1.5983    4.1999   54.3268 H       1  ZINC000464139057    0.0800
     41 H41         0.4635    5.5581   54.1382 H       1  ZINC000464139057    0.0800
     42 H42        -1.2906    3.6620   54.6001 H       1  ZINC000464139057    0.4000
     43 H43        -1.7953    2.5843   56.6082 H       1  ZINC000464139057    0.4000
     44 H44        -1.2494    1.5951   58.6426 H       1  ZINC000464139057    0.0700
     45 H45         0.4537    1.6564   58.1288 H       1  ZINC000464139057    0.0700
     46 H46         0.6113    4.0086   58.7890 H       1  ZINC000464139057    0.0700
     47 H47        -1.1233    4.0443   59.1869 H       1  ZINC000464139057    0.0800
     48 H48        -1.0271    4.4102   61.4359 H       1  ZINC000464139057    0.1100
     49 H49         0.9653    2.8578   63.0743 H       1  ZINC000464139057    0.0700
     50 H50        -0.4152    3.7954   63.7020 H       1  ZINC000464139057    0.0700
     51 H51        -1.0572    1.6268   64.2813 H       1  ZINC000464139057    0.0600
     52 H52        -1.8339    1.7984   62.6925 H       1  ZINC000464139057    0.0600
     53 H53         0.8954    0.5611   63.1590 H       1  ZINC000464139057    0.0600
     54 H54        -0.6075   -0.3596   63.0063 H       1  ZINC000464139057    0.0600
     55 H55         0.5333   -0.4075   60.8920 H       1  ZINC000464139057    0.0600
     56 H56        -0.9093    0.6158   60.7222 H       1  ZINC000464139057    0.0600
     57 H57         1.4208    1.4377   59.7798 H       1  ZINC000464139057    0.0700
     58 H58         1.7100    1.8985   61.4779 H       1  ZINC000464139057    0.0700
     59 H59         2.3609    3.4334   52.2938 H       1  ZINC000464139057    0.1300
     60 H60         1.9798    2.7743   49.9550 H       1  ZINC000464139057    0.1300
     61 H61        -2.1622    1.2802   46.6999 H       1  ZINC000464139057    0.0800
     62 H62        -0.6350    2.0550   46.2048 H       1  ZINC000464139057    0.1000
     63 H63        -0.5053    0.0987   44.5239 H       1  ZINC000464139057    0.0800
     64 H64        -0.4075   -1.5657   45.1470 H       1  ZINC000464139057    0.0700
     65 H65        -1.9420   -0.6689   45.2411 H       1  ZINC000464139057    0.0700
@<TRIPOS>BOND
     1     1     2    1
     2     1    33    1
     3     1    34    1
     4     1    35    1
     5     2     3    1
     6     2    32    1
     7     2     4    1
     8     4     5    1
     9     4    36    1
    10     4    37    1
    11     5     6   am
    12     5    28    1
    13     6     7    2
    14     6     8    1
    15     8    27   ar
    16     8     9   ar
    17     9    10   ar
    18     9    38    1
    19    10    11   ar
    20    10    39    1
    21    11    12    1
    22    11    26   ar
    23    12    13    1
    24    12    40    1
    25    12    41    1
    26    13    14   am
    27    13    42    1
    28    14    15    2
    29    14    16   am
    30    16    17    1
    31    16    43    1
    32    17    18    1
    33    17    44    1
    34    17    45    1
    35    18    19    1
    36    18    46    1
    37    18    47    1
    38    19    25    1
    39    19    20    2
    40    20    21    1
    41    20    48    1
    42    21    22    1
    43    21    49    1
    44    21    50    1
    45    22    23    1
    46    22    51    1
    47    22    52    1
    48    23    24    1
    49    23    53    1
    50    23    54    1
    51    24    25    1
    52    24    55    1
    53    24    56    1
    54    25    57    1
    55    25    58    1
    56    26    27   ar
    57    26    59    1
    58    27    60    1
    59    28    29    1
    60    28    61    1
    61    28    62    1
    62    29    30    1
    63    29    31    1
    64    29    32    1
    65    31    63    1
    66    31    64    1
    67    31    65    1
@<TRIPOS>SUBSTRUCTURE
     1 ZINC000464139057        1 TEMP              0 ****  ****    0 ROOT


##########                                Name:    ZINC000621594459
##########                DOCK_Rotatable_Bonds:                  10
##########                         Heavy_Atoms:                  25
##########                    Molecular_Weight:             389.497
##########                DOCK_Rotatable_Bonds:                  10
##########                       Formal_Charge:         -7.7486e-07
##########                     HBond_Acceptors:                  10
##########                        HBond_Donors:                   3
##########                         Heavy_Atoms:                  25
##########                          Grid_Score:          -38.054817
##########                     Grid_vdw_energy:          -38.561443
##########                      Grid_es_energy:            0.506625
##########           Internal_energy_repulsive:           11.277296

@<TRIPOS>MOLECULE
ZINC000621594459
 48 49 1 0 0
SMALL
USER_CHARGES


@<TRIPOS>ATOM
      1 C1         -9.5909    3.1736   52.6926 C.3     1  ZINC000621594459   -0.1600
      2 C2         -8.1524    2.6907   52.8895 C.3     1  ZINC000621594459    0.1300
      3 C3         -7.8058    2.7145   54.3795 C.3     1  ZINC000621594459   -0.1800
      4 N4         -8.0223    1.3234   52.3796 N.am    1  ZINC000621594459   -1.1100
      5 S5         -6.5640    0.7892   51.8050 S.o2    1  ZINC000621594459    2.6200
      6 O6         -5.6643    0.9975   52.8850 O.2     1  ZINC000621594459   -0.9500
      7 O7         -6.8363   -0.5185   51.3202 O.2     1  ZINC000621594459   -0.9400
      8 C8         -6.1806    1.9103   50.4316 C.3     1  ZINC000621594459   -0.6600
      9 C9         -5.2607    3.0281   50.9272 C.3     1  ZINC000621594459    0.1300
     10 N10        -3.8680    2.5781   50.8647 N.am    1  ZINC000621594459   -0.7200
     11 C11        -3.2480    2.4690   49.6730 C.2     1  ZINC000621594459    0.5600
     12 O12        -3.8439    2.7454   48.6503 O.2     1  ZINC000621594459   -0.5200
     13 C13        -1.8429    2.0132   49.6097 C.ar    1  ZINC000621594459   -0.1500
     14 C14        -0.8283    2.7899   50.1710 C.ar    1  ZINC000621594459   -0.0300
     15 C15         0.4809    2.3586   50.1089 C.ar    1  ZINC000621594459   -0.1400
     16 C16         0.7888    1.1594   49.4916 C.ar    1  ZINC000621594459    0.0100
     17 C17        -0.2125    0.3849   48.9327 C.ar    1  ZINC000621594459   -0.6800
     18 S18         0.1906   -1.1405   48.1482 S.o2    1  ZINC000621594459    2.7000
     19 O19         1.6055   -1.2591   48.2045 O.2     1  ZINC000621594459   -0.9400
     20 O20        -0.6931   -2.1144   48.6867 O.2     1  ZINC000621594459   -0.9500
     21 N21        -0.2025   -0.9870   46.5468 N.am    1  ZINC000621594459   -1.0900
     22 C22         0.4356    0.0500   45.7322 C.3     1  ZINC000621594459    0.0800
     23 C23         0.5309   -0.1948   44.2249 C.3     1  ZINC000621594459   -0.1800
     24 C24        -0.4545    0.8404   44.7709 C.3     1  ZINC000621594459   -0.1900
     25 C25        -1.5260    0.8015   48.9933 C.ar    1  ZINC000621594459    0.0400
     26 H26        -9.6877    4.1909   53.0720 H       1  ZINC000621594459    0.0700
     27 H27        -9.8378    3.1566   51.6312 H       1  ZINC000621594459    0.0700
     28 H28       -10.2718    2.5174   53.2346 H       1  ZINC000621594459    0.0600
     29 H29        -7.4715    3.3469   52.3475 H       1  ZINC000621594459    0.0900
     30 H30        -8.4868    2.0583   54.9214 H       1  ZINC000621594459    0.0700
     31 H31        -6.7812    2.3703   54.5197 H       1  ZINC000621594459    0.0600
     32 H32        -7.9026    3.7318   54.7588 H       1  ZINC000621594459    0.0700
     33 H33        -8.7905    0.7310   52.3786 H       1  ZINC000621594459    0.4200
     34 H34        -5.6819    1.3548   49.6374 H       1  ZINC000621594459    0.1400
     35 H35        -7.1041    2.3434   50.0474 H       1  ZINC000621594459    0.1400
     36 H36        -5.3867    3.9085   50.2970 H       1  ZINC000621594459    0.0900
     37 H37        -5.5158    3.2787   51.9569 H       1  ZINC000621594459    0.0900
     38 H38        -3.3920    2.3588   51.6809 H       1  ZINC000621594459    0.4000
     39 H39        -1.0672    3.7266   50.6526 H       1  ZINC000621594459    0.1300
     40 H40         1.2670    2.9586   50.5429 H       1  ZINC000621594459    0.1400
     41 H41         1.8151    0.8266   49.4454 H       1  ZINC000621594459    0.1500
     42 H42        -0.8551   -1.5838   46.1483 H       1  ZINC000621594459    0.4200
     43 H43         1.2585    0.5824   46.2090 H       1  ZINC000621594459    0.1400
     44 H44         1.4170    0.1764   43.7098 H       1  ZINC000621594459    0.1100
     45 H45         0.1190   -1.1274   43.8394 H       1  ZINC000621594459    0.1000
     46 H46        -1.5148    0.5887   44.7446 H       1  ZINC000621594459    0.1000
     47 H47        -0.2169    1.8927   44.6150 H       1  ZINC000621594459    0.1000
     48 H48        -2.3066    0.1960   48.5570 H       1  ZINC000621594459    0.1600
@<TRIPOS>BOND
     1     1     2    1
     2     1    26    1
     3     1    27    1
     4     1    28    1
     5     2     3    1
     6     2     4    1
     7     2    29    1
     8     3    30    1
     9     3    31    1
    10     3    32    1
    11     4     5   am
    12     4    33    1
    13     5     6    2
    14     5     7    2
    15     5     8    1
    16     8     9    1
    17     8    34    1
    18     8    35    1
    19     9    10    1
    20     9    36    1
    21     9    37    1
    22    10    11   am
    23    10    38    1
    24    11    12    2
    25    11    13    1
    26    13    25   ar
    27    13    14   ar
    28    14    15   ar
    29    14    39    1
    30    15    16   ar
    31    15    40    1
    32    16    17   ar
    33    16    41    1
    34    17    18    1
    35    17    25   ar
    36    18    19    2
    37    18    20    2
    38    18    21   am
    39    21    22    1
    40    21    42    1
    41    22    24    1
    42    22    23    1
    43    22    43    1
    44    23    24    1
    45    23    44    1
    46    23    45    1
    47    24    46    1
    48    24    47    1
    49    25    48    1
@<TRIPOS>SUBSTRUCTURE
     1 ZINC000621594459        1 TEMP              0 ****  ****    0 ROOT


##########                                Name:    ZINC001105194920
##########                DOCK_Rotatable_Bonds:                   8
##########                         Heavy_Atoms:                  25
##########                    Molecular_Weight:             346.392
##########                DOCK_Rotatable_Bonds:                   8
##########                       Formal_Charge:          -0.0100007
##########                     HBond_Acceptors:                  10
##########                        HBond_Donors:                   3
##########                         Heavy_Atoms:                  25
##########                          Grid_Score:          -38.048496
##########                     Grid_vdw_energy:          -36.687729
##########                      Grid_es_energy:           -1.360766
##########           Internal_energy_repulsive:            6.954865

@<TRIPOS>MOLECULE
ZINC001105194920
 47 49 1 0 0
SMALL
USER_CHARGES


@<TRIPOS>ATOM
      1 C1         -7.1482   -0.9121   51.4955 C.3     1  ZINC001105194920    0.0300
      2 O2         -6.3475    0.2252   51.8239 O.3     1  ZINC001105194920   -0.3900
      3 C3         -6.8059    1.4466   51.2407 C.3     1  ZINC001105194920    0.0700
      4 C4         -5.8606    2.5844   51.6314 C.3     1  ZINC001105194920    0.0900
      5 H5         -6.1388    3.4895   51.0914 H       1  ZINC001105194920    0.0900
      6 C6         -5.9620    2.8375   53.1370 C.3     1  ZINC001105194920   -0.1800
      7 N7         -4.4808    2.2144   51.2888 N.3     1  ZINC001105194920   -0.6800
      8 C8         -4.2718    2.2497   49.8352 C.3     1  ZINC001105194920    0.1400
      9 C9         -2.8226    1.9714   49.5293 C.2     1  ZINC001105194920   -0.0200
     10 C10        -2.2373    0.7561   49.4185 C.2     1  ZINC001105194920   -0.0200
     11 N11        -0.9343    0.9894   49.1378 N.pl3   1  ZINC001105194920   -0.2800
     12 C12         0.0952   -0.0319   48.9295 C.3     1  ZINC001105194920    0.1000
     13 C13        -0.3432   -1.1719   47.9925 C.3     1  ZINC001105194920    0.1100
     14 N14         0.2153   -0.3530   46.8992 N.am    1  ZINC001105194920   -0.6300
     15 C15        -0.0103   -0.2673   45.5731 C.2     1  ZINC001105194920    0.6200
     16 O16        -0.8428   -0.9829   45.0508 O.2     1  ZINC001105194920   -0.5400
     17 C17         0.7540    0.6961   44.7546 C.ar    1  ZINC001105194920   -0.0600
     18 N18         1.7814    0.2810   44.0192 N.ar    1  ZINC001105194920   -0.3700
     19 C19         2.4610    1.1429   43.2903 C.ar    1  ZINC001105194920   -0.0200
     20 C20         2.1111    2.4855   43.2847 C.ar    1  ZINC001105194920    0.1500
     21 N21         1.0937    2.9126   44.0101 N.ar    1  ZINC001105194920   -0.5100
     22 C22         0.3958    2.0543   44.7447 C.ar    1  ZINC001105194920    0.4200
     23 N23        -0.6706    2.4972   45.5054 N.pl3   1  ZINC001105194920   -0.8100
     24 C24         1.1202    0.3343   47.8408 C.3     1  ZINC001105194920    0.1100
     25 N25        -0.7549    2.2629   49.0848 N.2     1  ZINC001105194920   -0.0800
     26 N26        -1.8631    2.8768   49.3083 N.2     1  ZINC001105194920   -0.2600
     27 H27        -7.1526   -1.0535   50.4148 H       1  ZINC001105194920    0.0400
     28 H28        -6.7346   -1.7986   51.9763 H       1  ZINC001105194920    0.0800
     29 H29        -8.1680   -0.7515   51.8452 H       1  ZINC001105194920    0.0400
     30 H30        -6.8248    1.3464   50.1555 H       1  ZINC001105194920    0.0600
     31 H31        -7.8099    1.6677   51.6028 H       1  ZINC001105194920    0.0500
     32 H32        -5.6838    1.9323   53.6770 H       1  ZINC001105194920    0.0700
     33 H33        -5.2885    3.6481   53.4154 H       1  ZINC001105194920    0.0500
     34 H34        -6.9857    3.1121   53.3912 H       1  ZINC001105194920    0.0600
     35 H35        -3.8185    2.8090   51.7640 H       1  ZINC001105194920    0.3500
     36 H36        -4.8954    1.4925   49.3600 H       1  ZINC001105194920    0.0900
     37 H37        -4.5411    3.2343   49.4533 H       1  ZINC001105194920    0.0500
     38 H38        -2.7141   -0.2063   49.5318 H       1  ZINC001105194920    0.1800
     39 H39         0.5471   -0.3756   49.8600 H       1  ZINC001105194920    0.1500
     40 H40         0.1916   -2.1071   48.1583 H       1  ZINC001105194920    0.1200
     41 H41        -1.4239   -1.3027   47.9355 H       1  ZINC001105194920    0.1000
     42 H42         3.2949    0.8025   42.6945 H       1  ZINC001105194920    0.1800
     43 H43         2.6739    3.1849   42.6841 H       1  ZINC001105194920    0.1800
     44 H44        -0.9592    3.4212   45.4444 H       1  ZINC001105194920    0.4000
     45 H45        -1.1300    1.8838   46.1002 H       1  ZINC001105194920    0.4300
     46 H46         1.2079    1.4061   47.6628 H       1  ZINC001105194920    0.1100
     47 H47         2.0849   -0.1584   47.9620 H       1  ZINC001105194920    0.1200
@<TRIPOS>BOND
     1     1     2    1
     2     1    27    1
     3     1    28    1
     4     1    29    1
     5     2     3    1
     6     3     4    1
     7     3    30    1
     8     3    31    1
     9     4     5    1
    10     4     6    1
    11     4     7    1
    12     6    32    1
    13     6    33    1
    14     6    34    1
    15     7     8    1
    16     7    35    1
    17     8     9    1
    18     8    36    1
    19     8    37    1
    20     9    26    1
    21     9    10    2
    22    10    11    1
    23    10    38    1
    24    11    12    1
    25    11    25    1
    26    12    24    1
    27    12    13    1
    28    12    39    1
    29    13    14    1
    30    13    40    1
    31    13    41    1
    32    14    15   am
    33    14    24    1
    34    15    16    2
    35    15    17    1
    36    17    22   ar
    37    17    18   ar
    38    18    19   ar
    39    19    20   ar
    40    19    42    1
    41    20    21   ar
    42    20    43    1
    43    21    22   ar
    44    22    23    1
    45    23    44    1
    46    23    45    1
    47    24    46    1
    48    24    47    1
    49    25    26    2
@<TRIPOS>SUBSTRUCTURE
     1 ZINC001105194920        1 TEMP              0 ****  ****    0 ROOT


##########                                Name:     oleObject52.pdb
##########                DOCK_Rotatable_Bonds:                  10
##########                         Heavy_Atoms:                  38
##########                    Molecular_Weight:              533.07
##########                DOCK_Rotatable_Bonds:                  10
##########                       Formal_Charge:         0.000300027
##########                     HBond_Acceptors:                   8
##########                        HBond_Donors:                   0
##########                         Heavy_Atoms:                  38
##########                          Grid_Score:          -38.026451
##########                     Grid_vdw_energy:          -37.368073
##########                      Grid_es_energy:           -0.658380
##########           Internal_energy_repulsive:           34.555443

@<TRIPOS>MOLECULE
oleObject52.pdb
 71 74 1 0 0
SMALL
NO_CHARGES


@<TRIPOS>ATOM
      1 C         -10.5332   -0.4958   51.4493 C.ar    1  UNL        -0.0596
      2 C         -11.3183    0.6666   51.4762 C.ar    1  UNL        -0.0314
      3 C         -10.8491    1.8297   52.1231 C.ar    1  UNL         0.0800
      4 C          -9.5791    1.8257   52.7454 C.ar    1  UNL         0.0089
      5 C          -8.8036    0.6467   52.7150 C.ar    1  UNL        -0.0541
      6 C          -9.2767   -0.5058   52.0699 C.ar    1  UNL        -0.0617
      7 C          -9.0774    3.0942   53.4521 C.3     1  UNL         0.0953
      8 C          -8.5755    2.8123   54.8792 C.ar    1  UNL         0.0684
      9 C          -9.3354    2.0524   55.8037 C.ar    1  UNL        -0.0272
     10 C          -8.8010    1.8285   57.0865 C.ar    1  UNL        -0.0559
     11 C          -7.5429    2.3592   57.4054 C.ar    1  UNL        -0.0435
     12 C          -6.8573    3.0961   56.4285 C.ar    1  UNL         0.0272
     13 N          -7.3595    3.3158   55.1992 N.ar    1  UNL        -0.2587
     14 C         -10.6945    1.4615   55.4491 C.3     1  UNL        -0.0379
     15 N          -8.1564    3.9297   52.6297 N.am    1  UNL        -0.2917
     16 C          -6.8200    3.5506   52.4632 C.2     1  UNL         0.2180
     17 O          -6.4578    2.4239   52.7586 O.2     1  UNL        -0.2772
     18 C          -5.9224    4.4687   51.5947 C.3     1  UNL         0.0385
     19 C          -6.1235    4.2146   50.0811 C.3     1  UNL        -0.0289
     20 C          -5.4715    2.8923   49.6226 C.3     1  UNL        -0.0010
     21 N          -4.0266    2.8570   49.9472 N.4     1  UNL        -0.3010
     22 C          -3.7558    3.0631   51.3870 C.3     1  UNL        -0.0010
     23 C          -4.4143    4.3507   51.9408 C.3     1  UNL        -0.0289
     24 C          -3.3154    1.6665   49.4308 C.3     1  UNL         0.0222
     25 C          -2.3721    1.9779   48.2505 C.3     1  UNL         0.0661
     26 O          -1.7186    0.7521   47.8757 O.3     1  UNL        -0.3432
     27 C          -0.3478    0.6177   47.7697 C.ar    1  UNL         0.0937
     28 C           0.4741    1.6687   47.3112 C.ar    1  UNL        -0.0289
     29 C           1.8644    1.4904   47.2186 C.ar    1  UNL        -0.0417
     30 C           2.4467    0.2638   47.5821 C.ar    1  UNL         0.0537
     31 C           1.6318   -0.7854   48.0396 C.ar    1  UNL        -0.0230
     32 C           0.2411   -0.6099   48.1334 C.ar    1  UNL         0.0721
     33 CL         -0.7422   -1.9432   48.7086 Cl      1  UNL        -0.0814
     34 C           3.8669    0.0840   47.4865 C.1     1  UNL         0.0992
     35 N           5.0124   -0.0514   47.4045 N.1     1  UNL        -0.1924
     36 C          -8.7134    5.1704   52.0480 C.3     1  UNL         0.0037
     37 O         -11.6089    2.9862   52.1708 O.3     1  UNL        -0.3490
     38 C         -12.9137    3.1096   51.5803 C.3     1  UNL         0.0422
     39 H         -10.8999   -1.3880   50.9499 H       1  UNL         0.0624
     40 H         -12.2887    0.6501   50.9918 H       1  UNL         0.0651
     41 H          -7.8296    0.6136   53.1911 H       1  UNL         0.0627
     42 H          -8.6691   -1.4060   52.0523 H       1  UNL         0.0623
     43 H          -9.9770    3.7072   53.5759 H       1  UNL         0.0627
     44 H          -9.3489    1.2481   57.8234 H       1  UNL         0.0627
     45 H          -7.1057    2.1995   58.3865 H       1  UNL         0.0639
     46 H          -5.8758    3.5213   56.6342 H       1  UNL         0.0840
     47 H         -11.3614    2.2240   55.0332 H       1  UNL         0.0280
     48 H         -11.1934    1.0352   56.3282 H       1  UNL         0.0280
     49 H         -10.5908    0.6601   54.7067 H       1  UNL         0.0280
     50 H          -6.2022    5.5062   51.8053 H       1  UNL         0.0402
     51 H          -5.6715    5.0412   49.5177 H       1  UNL         0.0288
     52 H          -7.1895    4.2135   49.8261 H       1  UNL         0.0288
     53 H          -5.6272    2.7990   48.5416 H       1  UNL         0.0431
     54 H          -5.9804    2.0492   50.1086 H       1  UNL         0.0431
     55 H          -2.6730    3.1285   51.5547 H       1  UNL         0.0431
     56 H          -4.1182    2.1964   51.9539 H       1  UNL         0.0431
     57 H          -3.8889    5.2144   51.5131 H       1  UNL         0.0288
     58 H          -4.2702    4.4062   53.0274 H       1  UNL         0.0288
     59 H          -4.0411    0.9041   49.1182 H       1  UNL         0.0455
     60 H          -2.7083    1.2326   50.2360 H       1  UNL         0.0455
     61 H          -1.6305    2.7239   48.5636 H       1  UNL         0.0586
     62 H          -2.9441    2.3714   47.4015 H       1  UNL         0.0586
     63 H           0.0492    2.6255   47.0251 H       1  UNL         0.0651
     64 H           2.4882    2.3071   46.8642 H       1  UNL         0.0638
     65 H           2.0745   -1.7369   48.3226 H       1  UNL         0.0653
     66 H          -9.5388    5.5503   52.6609 H       1  UNL         0.0433
     67 H          -9.0832    4.9757   51.0339 H       1  UNL         0.0433
     68 H          -7.9486    5.9550   52.0153 H       1  UNL         0.0433
     69 H         -13.3090    4.1166   51.7619 H       1  UNL         0.0535
     70 H         -13.6048    2.3803   52.0214 H       1  UNL         0.0535
     71 H         -12.8614    2.9475   50.4963 H       1  UNL         0.0535
@<TRIPOS>BOND
     1     1     2   ar
     2     1     6   ar
     3     1    39    1
     4     2     3   ar
     5     2    40    1
     6     3     4   ar
     7     3    37    1
     8     4     5   ar
     9     4     7    1
    10     5     6   ar
    11     5    41    1
    12     6    42    1
    13     7     8    1
    14     7    15    1
    15     7    43    1
    16     8     9   ar
    17     8    13   ar
    18     9    10   ar
    19     9    14    1
    20    10    11   ar
    21    10    44    1
    22    11    12   ar
    23    11    45    1
    24    12    13   ar
    25    12    46    1
    26    14    47    1
    27    14    48    1
    28    14    49    1
    29    15    16   am
    30    15    36    1
    31    16    17    2
    32    16    18    1
    33    18    19    1
    34    18    23    1
    35    18    50    1
    36    19    20    1
    37    19    51    1
    38    19    52    1
    39    20    21    1
    40    20    53    1
    41    20    54    1
    42    21    22    1
    43    21    24    1
    44    22    23    1
    45    22    55    1
    46    22    56    1
    47    23    57    1
    48    23    58    1
    49    24    25    1
    50    24    59    1
    51    24    60    1
    52    25    26    1
    53    25    61    1
    54    25    62    1
    55    26    27    1
    56    27    28   ar
    57    27    32   ar
    58    28    29   ar
    59    28    63    1
    60    29    30   ar
    61    29    64    1
    62    30    31   ar
    63    30    34    1
    64    31    32   ar
    65    31    65    1
    66    32    33    1
    67    34    35    3
    68    36    66    1
    69    36    67    1
    70    36    68    1
    71    37    38    1
    72    38    69    1
    73    38    70    1
    74    38    71    1
@<TRIPOS>SUBSTRUCTURE
     1 UNL         1 TEMP              0 ****  ****    0 ROOT


##########                                Name:    ZINC000508765459
##########                DOCK_Rotatable_Bonds:                  10
##########                         Heavy_Atoms:                  29
##########                    Molecular_Weight:               405.5
##########                DOCK_Rotatable_Bonds:                  10
##########                       Formal_Charge:         -6.4075e-07
##########                     HBond_Acceptors:                  10
##########                        HBond_Donors:                   1
##########                         Heavy_Atoms:                  29
##########                          Grid_Score:          -37.981586
##########                     Grid_vdw_energy:          -36.807991
##########                      Grid_es_energy:           -1.173594
##########           Internal_energy_repulsive:           20.007122

@<TRIPOS>MOLECULE
ZINC000508765459
 60 62 1 0 0
SMALL
USER_CHARGES


@<TRIPOS>ATOM
      1 C1         -6.4353    4.0169   49.2516 C.3     1  ZINC000508765459    0.0300
      2 O2         -5.9907    3.2176   50.3496 O.3     1  ZINC000508765459   -0.3900
      3 C3         -6.0740    1.8104   50.1153 C.3     1  ZINC000508765459    0.0500
      4 C4         -6.0528    1.0685   51.4532 C.3     1  ZINC000508765459    0.1100
      5 N5         -7.4073    1.0265   52.0098 N.am    1  ZINC000508765459   -0.5900
      6 C6         -7.8942    2.2148   52.6970 C.3     1  ZINC000508765459    0.1000
      7 C7         -9.4236    2.2323   52.7333 C.3     1  ZINC000508765459    0.1200
      8 N8         -9.8886    0.8995   53.1534 N.am    1  ZINC000508765459   -0.6400
      9 C9        -10.6049    0.7305   54.2823 C.2     1  ZINC000508765459    0.7100
     10 O10       -10.8809    1.6898   54.9766 O.2     1  ZINC000508765459   -0.5800
     11 N11       -11.0153   -0.5019   54.6418 N.am    1  ZINC000508765459   -0.7400
     12 C12       -11.7954   -0.6855   55.8682 C.3     1  ZINC000508765459    0.1400
     13 C13       -11.7807   -2.1629   56.2657 C.3     1  ZINC000508765459   -0.1400
     14 C14       -12.3145   -2.3127   57.6917 C.3     1  ZINC000508765459    0.0600
     15 N15       -11.5792   -1.4099   58.5871 N.3     1  ZINC000508765459   -0.5400
     16 C16       -10.1576   -1.7765   58.6535 C.3     1  ZINC000508765459    0.0500
     17 C17        -9.4135   -0.7670   59.5308 C.3     1  ZINC000508765459    0.0700
     18 N18       -10.0137   -0.7518   60.8722 N.3     1  ZINC000508765459   -0.4600
     19 C19        -9.3209    0.0990   61.7159 C.ar    1  ZINC000508765459    0.4900
     20 N20        -8.7999    1.2139   61.2249 N.ar    1  ZINC000508765459   -0.5500
     21 C21        -8.1323    2.0487   62.0040 C.ar    1  ZINC000508765459    0.1700
     22 C22        -7.9815    1.7450   63.3479 C.ar    1  ZINC000508765459   -0.2600
     23 C23        -8.5392    0.5706   63.8286 C.ar    1  ZINC000508765459    0.1700
     24 N24        -9.1990   -0.2181   62.9966 N.ar    1  ZINC000508765459   -0.5300
     25 C25       -11.4352   -0.3852   60.8059 C.3     1  ZINC000508765459    0.0700
     26 C26       -12.1792   -1.3946   59.9285 C.3     1  ZINC000508765459    0.0600
     27 C27        -9.5401   -0.2391   52.2906 C.3     1  ZINC000508765459    0.1000
     28 C28        -8.1101   -0.0954   51.8471 C.2     1  ZINC000508765459    0.5100
     29 O29        -7.5680   -1.0464   51.3248 O.2     1  ZINC000508765459   -0.5400
     30 H30        -7.4787    3.7882   49.0347 H       1  ZINC000508765459    0.0400
     31 H31        -6.3404    5.0720   49.5084 H       1  ZINC000508765459    0.0900
     32 H32        -5.8258    3.8003   48.3743 H       1  ZINC000508765459    0.0400
     33 H33        -7.0011    1.5839   49.5889 H       1  ZINC000508765459    0.0500
     34 H34        -5.2253    1.4920   49.5099 H       1  ZINC000508765459    0.0600
     35 H35        -5.6916    0.0517   51.2992 H       1  ZINC000508765459    0.1100
     36 H36        -5.3911    1.5880   52.1464 H       1  ZINC000508765459    0.0900
     37 H37        -7.5110    2.2216   53.7173 H       1  ZINC000508765459    0.0700
     38 H38        -7.5376    3.1026   52.1747 H       1  ZINC000508765459    0.1000
     39 H39        -9.7660    2.9828   53.4458 H       1  ZINC000508765459    0.1200
     40 H40        -9.8124    2.4617   51.7412 H       1  ZINC000508765459    0.0800
     41 H41       -10.7941   -1.2674   54.0886 H       1  ZINC000508765459    0.4000
     42 H42       -11.3586   -0.0893   56.6694 H       1  ZINC000508765459    0.0700
     43 H43       -12.8232   -0.3658   55.6962 H       1  ZINC000508765459    0.0700
     44 H44       -12.4108   -2.7298   55.5803 H       1  ZINC000508765459    0.0700
     45 H45       -10.7597   -2.5417   56.2183 H       1  ZINC000508765459    0.0800
     46 H46       -13.3746   -2.0601   57.7113 H       1  ZINC000508765459    0.0800
     47 H47       -12.1802   -3.3424   58.0235 H       1  ZINC000508765459    0.0400
     48 H48       -10.0588   -2.7736   59.0826 H       1  ZINC000508765459    0.0500
     49 H49        -9.7328   -1.7685   57.6497 H       1  ZINC000508765459    0.0900
     50 H50        -8.3645   -1.0534   59.6050 H       1  ZINC000508765459    0.0900
     51 H51        -9.4894    0.2258   59.0873 H       1  ZINC000508765459    0.0600
     52 H52        -7.7097    2.9558   61.5979 H       1  ZINC000508765459    0.1700
     53 H53        -7.4409    2.4089   64.0063 H       1  ZINC000508765459    0.1500
     54 H54        -8.4394    0.3046   64.8705 H       1  ZINC000508765459    0.1700
     55 H55       -11.8601   -0.3931   61.8097 H       1  ZINC000508765459    0.1000
     56 H56       -11.5340    0.6120   60.3768 H       1  ZINC000508765459    0.0500
     57 H57       -13.2283   -1.1082   59.8543 H       1  ZINC000508765459    0.0900
     58 H58       -12.1035   -2.3874   60.3722 H       1  ZINC000508765459    0.0500
     59 H59        -9.6612   -1.1688   52.8465 H       1  ZINC000508765459    0.1100
     60 H60       -10.1908   -0.2471   51.4162 H       1  ZINC000508765459    0.1100
@<TRIPOS>BOND
     1     1     2    1
     2     1    30    1
     3     1    31    1
     4     1    32    1
     5     2     3    1
     6     3     4    1
     7     3    33    1
     8     3    34    1
     9     4     5    1
    10     4    35    1
    11     4    36    1
    12     5    28   am
    13     5     6    1
    14     6     7    1
    15     6    37    1
    16     6    38    1
    17     7     8    1
    18     7    39    1
    19     7    40    1
    20     8     9   am
    21     8    27    1
    22     9    10    2
    23     9    11   am
    24    11    12    1
    25    11    41    1
    26    12    13    1
    27    12    42    1
    28    12    43    1
    29    13    14    1
    30    13    44    1
    31    13    45    1
    32    14    15    1
    33    14    46    1
    34    14    47    1
    35    15    26    1
    36    15    16    1
    37    16    17    1
    38    16    48    1
    39    16    49    1
    40    17    18    1
    41    17    50    1
    42    17    51    1
    43    18    19    1
    44    18    25    1
    45    19    24   ar
    46    19    20   ar
    47    20    21   ar
    48    21    22   ar
    49    21    52    1
    50    22    23   ar
    51    22    53    1
    52    23    24   ar
    53    23    54    1
    54    25    26    1
    55    25    55    1
    56    25    56    1
    57    26    57    1
    58    26    58    1
    59    27    28    1
    60    27    59    1
    61    27    60    1
    62    28    29    2
@<TRIPOS>SUBSTRUCTURE
     1 ZINC000508765459        1 TEMP              0 ****  ****    0 ROOT


##########                                Name:     oleObject27.pdb
##########                DOCK_Rotatable_Bonds:                   9
##########                         Heavy_Atoms:                  35
##########                    Molecular_Weight:             513.466
##########                DOCK_Rotatable_Bonds:                   9
##########                       Formal_Charge:         0.000199873
##########                     HBond_Acceptors:                   8
##########                        HBond_Donors:                   1
##########                         Heavy_Atoms:                  35
##########                          Grid_Score:          -37.664120
##########                     Grid_vdw_energy:          -36.995682
##########                      Grid_es_energy:           -0.668439
##########           Internal_energy_repulsive:           32.578819

@<TRIPOS>MOLECULE
oleObject27.pdb
 65 68 1 0 0
SMALL
NO_CHARGES


@<TRIPOS>ATOM
      1 C          -0.5747   -1.2159   46.3826 C.ar    1  UNL        -0.0620
      2 C          -0.9364    0.0900   46.0213 C.ar    1  UNL        -0.0590
      3 C          -0.9933    1.1142   46.9865 C.ar    1  UNL        -0.0456
      4 C          -0.6748    0.8244   48.3367 C.ar    1  UNL        -0.0187
      5 C          -0.3231   -0.4977   48.6871 C.ar    1  UNL        -0.0565
      6 C          -0.2709   -1.5104   47.7180 C.ar    1  UNL        -0.0619
      7 C          -0.7243    1.9167   49.4168 C.3     1  UNL         0.0921
      8 C           0.1798    3.1100   49.0920 C.ar    1  UNL         0.0681
      9 C           1.5609    3.1193   49.4109 C.ar    1  UNL        -0.0272
     10 C           2.3135    4.2639   49.0867 C.ar    1  UNL        -0.0559
     11 C           1.6744    5.3514   48.4736 C.ar    1  UNL        -0.0435
     12 C           0.2996    5.2616   48.2094 C.ar    1  UNL         0.0272
     13 N          -0.4290    4.1716   48.5149 N.ar    1  UNL        -0.2587
     14 C           2.2465    1.9445   50.0991 C.3     1  UNL        -0.0379
     15 N          -2.0908    2.3759   49.7047 N.am    1  UNL        -0.2865
     16 C          -2.4628    3.0113   50.8757 C.2     1  UNL         0.3014
     17 O          -1.6627    3.2333   51.7693 O.2     1  UNL        -0.2541
     18 N          -3.8087    3.3720   50.9632 N.am    1  UNL        -0.2833
     19 C          -4.7794    3.0921   49.8702 C.3     1  UNL         0.0284
     20 C          -6.1153    3.8684   49.9677 C.3     1  UNL         0.0142
     21 N          -6.6864    3.8413   51.3255 N.4     1  UNL        -0.2979
     22 C          -5.7236    4.4395   52.2713 C.3     1  UNL         0.0142
     23 C          -4.3800    3.6750   52.2985 C.3     1  UNL         0.0284
     24 C          -7.2217    2.5114   51.7042 C.3     1  UNL         0.0223
     25 C          -7.8266    2.4800   53.1222 C.3     1  UNL         0.0661
     26 O          -8.8504    1.4698   53.1364 O.3     1  UNL        -0.3432
     27 C         -10.0049    1.5402   52.3807 C.ar    1  UNL         0.0937
     28 C         -10.5315    2.7701   51.9311 C.ar    1  UNL        -0.0288
     29 C         -11.7084    2.7969   51.1645 C.ar    1  UNL        -0.0408
     30 C         -12.3656    1.5989   50.8425 C.ar    1  UNL         0.0422
     31 C         -11.8480    0.3718   51.2855 C.ar    1  UNL        -0.0221
     32 C         -10.6712    0.3417   52.0522 C.ar    1  UNL         0.0723
     33 CL        -10.0510   -1.2080   52.5904 Cl      1  UNL        -0.0814
     34 CL        -13.8320    1.6358   49.8869 Cl      1  UNL        -0.0843
     35 C          -1.4085    2.5129   46.5426 C.3     1  UNL        -0.0394
     36 H          -0.5357   -1.9982   45.6300 H       1  UNL         0.0623
     37 H          -1.1763    0.3049   44.9838 H       1  UNL         0.0626
     38 H          -0.0942   -0.7498   49.7183 H       1  UNL         0.0627
     39 H           0.0025   -2.5221   48.0034 H       1  UNL         0.0623
     40 H          -0.3629    1.4606   50.3431 H       1  UNL         0.0625
     41 H           3.3755    4.3128   49.3100 H       1  UNL         0.0627
     42 H           2.2305    6.2472   48.2138 H       1  UNL         0.0639
     43 H          -0.2352    6.0861   47.7393 H       1  UNL         0.0840
     44 H           1.7202    1.6637   51.0201 H       1  UNL         0.0280
     45 H           3.2809    2.1847   50.3751 H       1  UNL         0.0280
     46 H           2.2767    1.0661   49.4428 H       1  UNL         0.0280
     47 H          -2.8096    2.1782   49.0229 H       1  UNL         0.1521
     48 H          -4.9929    2.0155   49.8750 H       1  UNL         0.0484
     49 H          -4.3289    3.3374   48.9006 H       1  UNL         0.0484
     50 H          -6.8308    3.4584   49.2436 H       1  UNL         0.0447
     51 H          -5.9271    4.9116   49.6819 H       1  UNL         0.0447
     52 H          -6.1402    4.4880   53.2841 H       1  UNL         0.0447
     53 H          -5.5206    5.4732   51.9628 H       1  UNL         0.0447
     54 H          -4.5206    2.7252   52.8297 H       1  UNL         0.0484
     55 H          -3.6600    4.2699   52.8749 H       1  UNL         0.0484
     56 H          -6.4369    1.7473   51.6382 H       1  UNL         0.0455
     57 H          -8.0124    2.2298   50.9968 H       1  UNL         0.0455
     58 H          -8.2561    3.4619   53.3591 H       1  UNL         0.0586
     59 H          -7.0511    2.2376   53.8589 H       1  UNL         0.0586
     60 H         -10.0398    3.7080   52.1677 H       1  UNL         0.0652
     61 H         -12.1097    3.7462   50.8208 H       1  UNL         0.0639
     62 H         -12.3572   -0.5547   51.0358 H       1  UNL         0.0655
     63 H          -1.7146    2.5304   45.4892 H       1  UNL         0.0280
     64 H          -0.5804    3.2240   46.6541 H       1  UNL         0.0280
     65 H          -2.2574    2.8797   47.1326 H       1  UNL         0.0280
@<TRIPOS>BOND
     1     1     2   ar
     2     1     6   ar
     3     1    36    1
     4     2     3   ar
     5     2    37    1
     6     3     4   ar
     7     3    35    1
     8     4     5   ar
     9     4     7    1
    10     5     6   ar
    11     5    38    1
    12     6    39    1
    13     7     8    1
    14     7    15    1
    15     7    40    1
    16     8     9   ar
    17     8    13   ar
    18     9    10   ar
    19     9    14    1
    20    10    11   ar
    21    10    41    1
    22    11    12   ar
    23    11    42    1
    24    12    13   ar
    25    12    43    1
    26    14    44    1
    27    14    45    1
    28    14    46    1
    29    15    16   am
    30    15    47    1
    31    16    17    2
    32    16    18   am
    33    18    19    1
    34    18    23    1
    35    19    20    1
    36    19    48    1
    37    19    49    1
    38    20    21    1
    39    20    50    1
    40    20    51    1
    41    21    22    1
    42    21    24    1
    43    22    23    1
    44    22    52    1
    45    22    53    1
    46    23    54    1
    47    23    55    1
    48    24    25    1
    49    24    56    1
    50    24    57    1
    51    25    26    1
    52    25    58    1
    53    25    59    1
    54    26    27    1
    55    27    28   ar
    56    27    32   ar
    57    28    29   ar
    58    28    60    1
    59    29    30   ar
    60    29    61    1
    61    30    31   ar
    62    30    34    1
    63    31    32   ar
    64    31    62    1
    65    32    33    1
    66    35    63    1
    67    35    64    1
    68    35    65    1
@<TRIPOS>SUBSTRUCTURE
     1 UNL         1 TEMP              0 ****  ****    0 ROOT


##########                                Name:    ZINC000435005159
##########                DOCK_Rotatable_Bonds:                  12
##########                         Heavy_Atoms:                  30
##########                    Molecular_Weight:             401.508
##########                DOCK_Rotatable_Bonds:                  12
##########                       Formal_Charge:          -0.0399985
##########                     HBond_Acceptors:                   5
##########                        HBond_Donors:                   2
##########                         Heavy_Atoms:                  30
##########                          Grid_Score:          -37.616180
##########                     Grid_vdw_energy:          -37.128086
##########                      Grid_es_energy:           -0.488095
##########           Internal_energy_repulsive:           12.171936

@<TRIPOS>MOLECULE
ZINC000435005159
 57 59 1 0 0
SMALL
USER_CHARGES


@<TRIPOS>ATOM
      1 O1         -4.4505    2.9512   48.7624 O.2     1  ZINC000435005159   -0.5300
      2 C2         -4.1517    2.2227   49.6849 C.2     1  ZINC000435005159    0.5200
      3 C3         -5.2294    1.6219   50.5501 C.3     1  ZINC000435005159   -0.1400
      4 C4         -5.2114    2.2914   51.9258 C.3     1  ZINC000435005159   -0.1200
      5 C5         -5.9279    1.3957   52.9383 C.3     1  ZINC000435005159    0.1200
      6 N6         -7.3766    1.5682   52.8034 N.am    1  ZINC000435005159   -0.7200
      7 C7         -8.1273    0.5782   52.2812 C.2     1  ZINC000435005159    0.5600
      8 O8         -7.6023   -0.4572   51.9208 O.2     1  ZINC000435005159   -0.5300
      9 C9         -9.5893    0.7515   52.1467 C.ar    1  ZINC000435005159   -0.1900
     10 C10       -10.3866   -0.2870   51.6512 C.ar    1  ZINC000435005159   -0.0200
     11 C11       -11.7500   -0.0740   51.5454 C.ar    1  ZINC000435005159   -0.1800
     12 C12       -12.2763    1.1462   51.9288 C.ar    1  ZINC000435005159    0.1200
     13 N13       -11.5001    2.1075   52.3922 N.ar    1  ZINC000435005159   -0.4900
     14 C14       -10.1987    1.9512   52.5170 C.ar    1  ZINC000435005159    0.1400
     15 N15        -2.8562    1.9460   49.9328 N.am    1  ZINC000435005159   -0.7300
     16 C16        -1.8085    2.5300   49.0916 C.3     1  ZINC000435005159    0.1900
     17 H17        -2.1851    3.4377   48.6199 H       1  ZINC000435005159    0.1000
     18 C18        -0.5923    2.8711   49.9550 C.3     1  ZINC000435005159   -0.1200
     19 C19        -0.9109    4.0869   50.8274 C.3     1  ZINC000435005159   -0.0800
     20 C20        -0.2673    3.9176   52.1795 C.ar    1  ZINC000435005159   -0.0800
     21 C21        -1.0367    3.9927   53.3255 C.ar    1  ZINC000435005159   -0.1200
     22 C22        -0.4464    3.8373   54.5658 C.ar    1  ZINC000435005159   -0.1200
     23 C23         0.9133    3.6065   54.6601 C.ar    1  ZINC000435005159   -0.1200
     24 C24         1.6825    3.5305   53.5140 C.ar    1  ZINC000435005159   -0.1200
     25 C25         1.0915    3.6815   52.2735 C.ar    1  ZINC000435005159   -0.1200
     26 C26        -1.4080    1.5402   48.0282 C.ar    1  ZINC000435005159   -0.1000
     27 C27        -1.4782    1.8936   46.6936 C.ar    1  ZINC000435005159   -0.1100
     28 C28        -1.1108    0.9858   45.7181 C.ar    1  ZINC000435005159   -0.1200
     29 C29        -0.6727   -0.2753   46.0771 C.ar    1  ZINC000435005159   -0.1200
     30 C30        -0.6017   -0.6282   47.4118 C.ar    1  ZINC000435005159   -0.1200
     31 C31        -0.9650    0.2811   48.3874 C.ar    1  ZINC000435005159   -0.1000
     32 H32        -6.2012    1.7795   50.0821 H       1  ZINC000435005159    0.1000
     33 H33        -5.0501    0.5528   50.6640 H       1  ZINC000435005159    0.1000
     34 H34        -4.1795    2.4442   52.2420 H       1  ZINC000435005159    0.0800
     35 H35        -5.7199    3.2538   51.8682 H       1  ZINC000435005159    0.0800
     36 H36        -5.6670    0.3542   52.7507 H       1  ZINC000435005159    0.0700
     37 H37        -5.6218    1.6711   53.9475 H       1  ZINC000435005159    0.0700
     38 H38        -7.7953    2.3949   53.0899 H       1  ZINC000435005159    0.4000
     39 H39        -9.9489   -1.2301   51.3586 H       1  ZINC000435005159    0.1500
     40 H40       -12.3961   -0.8523   51.1670 H       1  ZINC000435005159    0.1500
     41 H41       -13.3399    1.3151   51.8474 H       1  ZINC000435005159    0.1600
     42 H42        -9.5965    2.7615   52.9006 H       1  ZINC000435005159    0.1600
     43 H43        -2.6175    1.3602   50.6682 H       1  ZINC000435005159    0.4000
     44 H44        -0.3490    2.0206   50.5920 H       1  ZINC000435005159    0.0700
     45 H45         0.2579    3.0982   49.3117 H       1  ZINC000435005159    0.0800
     46 H46        -0.5237    4.9875   50.3509 H       1  ZINC000435005159    0.0700
     47 H47        -1.9907    4.1750   50.9475 H       1  ZINC000435005159    0.0700
     48 H48        -2.0990    4.1732   53.2518 H       1  ZINC000435005159    0.1200
     49 H49        -1.0474    3.8968   55.4611 H       1  ZINC000435005159    0.1200
     50 H50         1.3745    3.4858   55.6291 H       1  ZINC000435005159    0.1200
     51 H51         2.7449    3.3504   53.5876 H       1  ZINC000435005159    0.1200
     52 H52         1.6925    3.6221   51.3782 H       1  ZINC000435005159    0.1200
     53 H53        -1.8204    2.8788   46.4130 H       1  ZINC000435005159    0.1200
     54 H54        -1.1663    1.2615   44.6753 H       1  ZINC000435005159    0.1200
     55 H55        -0.3863   -0.9847   45.3149 H       1  ZINC000435005159    0.1200
     56 H56        -0.2598   -1.6135   47.6923 H       1  ZINC000435005159    0.1200
     57 H57        -0.9095    0.0054   49.4302 H       1  ZINC000435005159    0.1200
@<TRIPOS>BOND
     1     1     2    2
     2     2     3    1
     3     2    15   am
     4     3     4    1
     5     3    32    1
     6     3    33    1
     7     4     5    1
     8     4    34    1
     9     4    35    1
    10     5     6    1
    11     5    36    1
    12     5    37    1
    13     6     7   am
    14     6    38    1
    15     7     8    2
    16     7     9    1
    17     9    14   ar
    18     9    10   ar
    19    10    11   ar
    20    10    39    1
    21    11    12   ar
    22    11    40    1
    23    12    13   ar
    24    12    41    1
    25    13    14   ar
    26    14    42    1
    27    15    16    1
    28    15    43    1
    29    16    17    1
    30    16    18    1
    31    16    26    1
    32    18    19    1
    33    18    44    1
    34    18    45    1
    35    19    20    1
    36    19    46    1
    37    19    47    1
    38    20    25   ar
    39    20    21   ar
    40    21    22   ar
    41    21    48    1
    42    22    23   ar
    43    22    49    1
    44    23    24   ar
    45    23    50    1
    46    24    25   ar
    47    24    51    1
    48    25    52    1
    49    26    31   ar
    50    26    27   ar
    51    27    28   ar
    52    27    53    1
    53    28    29   ar
    54    28    54    1
    55    29    30   ar
    56    29    55    1
    57    30    31   ar
    58    30    56    1
    59    31    57    1
@<TRIPOS>SUBSTRUCTURE
     1 ZINC000435005159        1 TEMP              0 ****  ****    0 ROOT


##########                                Name:    ZINC001591898574
##########                DOCK_Rotatable_Bonds:                  10
##########                         Heavy_Atoms:                  26
##########                    Molecular_Weight:             383.434
##########                DOCK_Rotatable_Bonds:                  10
##########                       Formal_Charge:         5.96046e-08
##########                     HBond_Acceptors:                  13
##########                        HBond_Donors:                   3
##########                         Heavy_Atoms:                  26
##########                          Grid_Score:          -37.441029
##########                     Grid_vdw_energy:          -36.823845
##########                      Grid_es_energy:           -0.617185
##########           Internal_energy_repulsive:            8.654597

@<TRIPOS>MOLECULE
ZINC001591898574
 47 48 1 0 0
SMALL
USER_CHARGES


@<TRIPOS>ATOM
      1 C1         -0.9177    4.1473   51.4255 C.3     1  ZINC001591898574   -0.1100
      2 C2         -1.6583    3.1309   50.5950 C.ar    1  ZINC001591898574    0.2300
      3 C3         -0.9645    2.1548   49.9020 C.ar    1  ZINC001591898574   -0.2400
      4 C4         -1.6911    1.2326   49.1450 C.ar    1  ZINC001591898574    0.3000
      5 C5         -0.9934    0.1664   48.3842 C.2     1  ZINC001591898574    0.2100
      6 N6         -0.6148    0.2184   47.1224 N.2     1  ZINC001591898574   -0.2500
      7 N7         -0.0441   -0.9009   46.8355 N.pl3   1  ZINC001591898574   -0.2200
      8 N8         -0.0489   -1.6602   47.8750 N.2     1  ZINC001591898574   -0.0400
      9 N9         -0.6202   -1.0349   48.8479 N.2     1  ZINC001591898574   -0.2500
     10 N10        -3.0182    1.3244   49.1167 N.ar    1  ZINC001591898574   -0.5500
     11 C11        -3.6429    2.2743   49.7949 C.ar    1  ZINC001591898574    0.5800
     12 N12        -5.0245    2.3418   49.7441 N.pl3   1  ZINC001591898574   -0.7000
     13 C13        -5.7843    2.7135   50.9402 C.3     1  ZINC001591898574    0.1400
     14 C14        -5.7549    1.5579   51.9426 C.3     1  ZINC001591898574   -0.1500
     15 C15        -6.8333    0.5366   51.5751 C.3     1  ZINC001591898574    0.1200
     16 N16        -8.1420    1.0303   52.0107 N.am    1  ZINC001591898574   -0.7300
     17 C17        -9.1561    0.1653   52.2108 C.2     1  ZINC001591898574    0.4900
     18 O18        -8.9847   -1.0219   52.0316 O.2     1  ZINC001591898574   -0.5300
     19 C19       -10.5028    0.6733   52.6571 C.3     1  ZINC001591898574    0.1000
     20 N20       -10.5551    0.6970   54.1210 N.am    1  ZINC001591898574   -0.9800
     21 C21        -9.9890    1.8308   54.8561 C.3     1  ZINC001591898574    0.1000
     22 S22       -11.2541   -0.5580   54.9450 S.o2    1  ZINC001591898574    2.6100
     23 C23       -12.9673   -0.5919   54.3495 C.3     1  ZINC001591898574   -0.6600
     24 O24       -10.5480   -1.7072   54.4980 O.2     1  ZINC001591898574   -0.9500
     25 O25       -11.2073   -0.1528   56.3062 O.2     1  ZINC001591898574   -0.9600
     26 N26        -2.9798    3.1591   50.5251 N.ar    1  ZINC001591898574   -0.5600
     27 H27        -0.7955    3.7681   52.4401 H       1  ZINC001591898574    0.0900
     28 H28         0.0627    4.3310   50.9858 H       1  ZINC001591898574    0.0900
     29 H29        -1.4845    5.0780   51.4513 H       1  ZINC001591898574    0.0900
     30 H30         0.1136    2.1073   49.9450 H       1  ZINC001591898574    0.1600
     31 H31         0.3304   -1.1345   45.9718 H       1  ZINC001591898574    0.4800
     32 H32        -5.4896    2.1429   48.9164 H       1  ZINC001591898574    0.4200
     33 H33        -5.3382    3.5989   51.3933 H       1  ZINC001591898574    0.0700
     34 H34        -6.8164    2.9280   50.6630 H       1  ZINC001591898574    0.0700
     35 H35        -4.7764    1.0786   51.9159 H       1  ZINC001591898574    0.0800
     36 H36        -5.9445    1.9416   52.9451 H       1  ZINC001591898574    0.0800
     37 H37        -6.8416    0.3895   50.4951 H       1  ZINC001591898574    0.0700
     38 H38        -6.6196   -0.4112   52.0693 H       1  ZINC001591898574    0.0700
     39 H39        -8.2788    1.9796   52.1552 H       1  ZINC001591898574    0.4000
     40 H40       -10.6569    1.6812   52.2718 H       1  ZINC001591898574    0.1200
     41 H41       -11.2838    0.0153   52.2763 H       1  ZINC001591898574    0.1300
     42 H42       -10.7567    2.5914   54.9981 H       1  ZINC001591898574    0.0600
     43 H43        -9.6299    1.4912   55.8275 H       1  ZINC001591898574    0.0700
     44 H44        -9.1594    2.2534   54.2894 H       1  ZINC001591898574    0.0700
     45 H45       -12.9743   -0.7583   53.2724 H       1  ZINC001591898574    0.1300
     46 H46       -13.5083   -1.3980   54.8453 H       1  ZINC001591898574    0.1200
     47 H47       -13.4487    0.3600   54.5733 H       1  ZINC001591898574    0.1300
@<TRIPOS>BOND
     1     1     2    1
     2     1    27    1
     3     1    28    1
     4     1    29    1
     5     2    26   ar
     6     2     3   ar
     7     3     4   ar
     8     3    30    1
     9     4     5    1
    10     4    10   ar
    11     5     9    1
    12     5     6    2
    13     6     7    1
    14     7     8    1
    15     7    31    1
    16     8     9    2
    17    10    11   ar
    18    11    12    1
    19    11    26   ar
    20    12    13    1
    21    12    32    1
    22    13    14    1
    23    13    33    1
    24    13    34    1
    25    14    15    1
    26    14    35    1
    27    14    36    1
    28    15    16    1
    29    15    37    1
    30    15    38    1
    31    16    17   am
    32    16    39    1
    33    17    18    2
    34    17    19    1
    35    19    20    1
    36    19    40    1
    37    19    41    1
    38    20    21    1
    39    20    22   am
    40    21    42    1
    41    21    43    1
    42    21    44    1
    43    22    23    1
    44    22    24    2
    45    22    25    2
    46    23    45    1
    47    23    46    1
    48    23    47    1
@<TRIPOS>SUBSTRUCTURE
     1 ZINC001591898574        1 TEMP              0 ****  ****    0 ROOT


##########                                Name:    ZINC001009116151
##########                DOCK_Rotatable_Bonds:                   6
##########                         Heavy_Atoms:                  25
##########                    Molecular_Weight:             342.481
##########                DOCK_Rotatable_Bonds:                   6
##########                       Formal_Charge:           0.0600006
##########                     HBond_Acceptors:                   4
##########                        HBond_Donors:                   1
##########                         Heavy_Atoms:                  25
##########                          Grid_Score:          -37.347397
##########                     Grid_vdw_energy:          -35.935841
##########                      Grid_es_energy:           -1.411558
##########           Internal_energy_repulsive:           10.209407

@<TRIPOS>MOLECULE
ZINC001009116151
 55 59 1 0 0
SMALL
USER_CHARGES


@<TRIPOS>ATOM
      1 O1         -2.6198    2.7746   47.9303 O.2     1  ZINC001009116151   -0.5400
      2 C2         -2.2005    1.9408   48.7049 C.2     1  ZINC001009116151    0.5200
      3 N3         -2.7866    1.7841   49.9085 N.am    1  ZINC001009116151   -0.7300
      4 C4         -3.9261    2.6249   50.2834 C.3     1  ZINC001009116151    0.1500
      5 C5         -4.8761    1.8270   51.1788 C.3     1  ZINC001009116151   -0.1200
      6 H6         -4.4209    1.3724   52.0588 H       1  ZINC001009116151    0.1100
      7 C7         -6.0113    1.0609   50.4967 C.3     1  ZINC001009116151   -0.1700
      8 H8         -6.0723    1.0471   49.4085 H       1  ZINC001009116151    0.1200
      9 C9         -6.6651   -0.1078   51.2650 C.3     1  ZINC001009116151    0.1300
     10 N10        -7.7327    0.5267   52.0728 N.am    1  ZINC001009116151   -0.6200
     11 C11        -8.9720    0.0578   52.3192 C.2     1  ZINC001009116151    0.5500
     12 O12        -9.3209   -1.0071   51.8555 O.2     1  ZINC001009116151   -0.5300
     13 C13        -9.9242    0.8570   53.1711 C.3     1  ZINC001009116151   -0.1200
     14 C14       -10.6017    1.9759   52.3464 C.3     1  ZINC001009116151   -0.0900
     15 C15       -11.8954    1.3650   51.8602 C.2     1  ZINC001009116151   -0.1800
     16 C16       -12.1913    0.2896   52.5381 C.2     1  ZINC001009116151   -0.1500
     17 C17       -11.1443    0.0040   53.5895 C.3     1  ZINC001009116151   -0.0900
     18 C18        -7.1290    1.7933   52.5480 C.3     1  ZINC001009116151    0.1200
     19 C19        -6.3134    2.3344   51.3109 C.3     1  ZINC001009116151   -0.1600
     20 H20        -6.6393    3.2728   50.8623 H       1  ZINC001009116151    0.1300
     21 C21        -1.0283    1.0758   48.3193 C.3     1  ZINC001009116151   -0.0700
     22 C22        -1.1888   -0.3102   48.9471 C.3     1  ZINC001009116151   -0.1100
     23 C23         0.0013   -1.1883   48.5556 C.3     1  ZINC001009116151   -0.1100
     24 C24         0.9552   -0.3878   47.6667 C.3     1  ZINC001009116151   -0.0900
     25 C25         0.2179    0.0642   46.4047 C.3     1  ZINC001009116151   -0.1100
     26 C26        -0.9722    0.9423   46.7962 C.3     1  ZINC001009116151   -0.0900
     27 C27         1.4563    0.8389   48.4315 C.3     1  ZINC001009116151   -0.1100
     28 C28         0.2662    1.7171   48.8231 C.3     1  ZINC001009116151   -0.1000
     29 H29        -2.4538    1.1146   50.5265 H       1  ZINC001009116151    0.4000
     30 H30        -3.5686    3.5018   50.8233 H       1  ZINC001009116151    0.0800
     31 H31        -4.4547    2.9423   49.3845 H       1  ZINC001009116151    0.0700
     32 H32        -7.0931   -0.8285   50.5683 H       1  ZINC001009116151    0.0900
     33 H33        -5.9349   -0.5921   51.9134 H       1  ZINC001009116151    0.0800
     34 H34        -9.4155    1.2666   54.0438 H       1  ZINC001009116151    0.1100
     35 H35       -10.8039    2.8423   52.9760 H       1  ZINC001009116151    0.0900
     36 H36        -9.9737    2.2578   51.5012 H       1  ZINC001009116151    0.0800
     37 H37       -12.4964    1.7658   51.0574 H       1  ZINC001009116151    0.1300
     38 H38       -13.0694   -0.3163   52.3700 H       1  ZINC001009116151    0.1300
     39 H39       -10.8852   -1.0548   53.5896 H       1  ZINC001009116151    0.0900
     40 H40       -11.5012    0.3084   54.5734 H       1  ZINC001009116151    0.0900
     41 H41        -7.9070    2.5069   52.8192 H       1  ZINC001009116151    0.0900
     42 H42        -6.4713    1.6059   53.3967 H       1  ZINC001009116151    0.0800
     43 H43        -1.2287   -0.2150   50.0323 H       1  ZINC001009116151    0.0700
     44 H44        -2.1111   -0.7669   48.5883 H       1  ZINC001009116151    0.0700
     45 H45         0.5266   -1.5103   49.4548 H       1  ZINC001009116151    0.0700
     46 H46        -0.3557   -2.0623   48.0108 H       1  ZINC001009116151    0.0700
     47 H47         1.8031   -1.0135   47.3878 H       1  ZINC001009116151    0.0700
     48 H48         0.8975    0.6345   45.7714 H       1  ZINC001009116151    0.0700
     49 H49        -0.1392   -0.8098   45.8598 H       1  ZINC001009116151    0.0700
     50 H50        -1.8945    0.4855   46.4373 H       1  ZINC001009116151    0.0700
     51 H51        -0.8580    1.9297   46.3489 H       1  ZINC001009116151    0.0700
     52 H52         1.9817    0.5169   49.3307 H       1  ZINC001009116151    0.0700
     53 H53         2.1359    1.4092   47.7982 H       1  ZINC001009116151    0.0700
     54 H54         0.3806    2.7045   48.3757 H       1  ZINC001009116151    0.0700
     55 H55         0.2263    1.8122   49.9082 H       1  ZINC001009116151    0.0700
@<TRIPOS>BOND
     1     1     2    2
     2     2     3   am
     3     2    21    1
     4     3     4    1
     5     3    29    1
     6     4     5    1
     7     4    30    1
     8     4    31    1
     9     5     6    1
    10     5    19    1
    11     5     7    1
    12     7     8    1
    13     7    19    1
    14     7     9    1
    15     9    10    1
    16     9    32    1
    17     9    33    1
    18    10    11   am
    19    10    18    1
    20    11    12    2
    21    11    13    1
    22    13    17    1
    23    13    14    1
    24    13    34    1
    25    14    15    1
    26    14    35    1
    27    14    36    1
    28    15    16    2
    29    15    37    1
    30    16    17    1
    31    16    38    1
    32    17    39    1
    33    17    40    1
    34    18    19    1
    35    18    41    1
    36    18    42    1
    37    19    20    1
    38    21    26    1
    39    21    28    1
    40    21    22    1
    41    22    23    1
    42    22    43    1
    43    22    44    1
    44    23    24    1
    45    23    45    1
    46    23    46    1
    47    24    25    1
    48    24    27    1
    49    24    47    1
    50    25    26    1
    51    25    48    1
    52    25    49    1
    53    26    50    1
    54    26    51    1
    55    27    28    1
    56    27    52    1
    57    27    53    1
    58    28    54    1
    59    28    55    1
@<TRIPOS>SUBSTRUCTURE
     1 ZINC001009116151        1 TEMP              0 ****  ****    0 ROOT


##########                                Name:    ZINC000506566356
##########                DOCK_Rotatable_Bonds:                  10
##########                         Heavy_Atoms:                  28
##########                    Molecular_Weight:               415.9
##########                DOCK_Rotatable_Bonds:                  10
##########                       Formal_Charge:           0.0199998
##########                     HBond_Acceptors:                   8
##########                        HBond_Donors:                   2
##########                         Heavy_Atoms:                  28
##########                          Grid_Score:          -37.271862
##########                     Grid_vdw_energy:          -35.589760
##########                      Grid_es_energy:           -1.682101
##########           Internal_energy_repulsive:           13.521367

@<TRIPOS>MOLECULE
ZINC000506566356
 46 48 1 0 0
SMALL
USER_CHARGES


@<TRIPOS>ATOM
      1 O1         -4.2605    3.1036   48.4751 O.2     1  ZINC000506566356   -0.5100
      2 C2         -3.3135    2.3817   48.7098 C.2     1  ZINC000506566356    0.5100
      3 N3         -3.4311    1.3880   49.6126 N.am    1  ZINC000506566356   -0.7000
      4 C4         -4.7001    1.1829   50.3151 C.3     1  ZINC000506566356    0.1200
      5 C5         -4.7116    2.0128   51.6004 C.3     1  ZINC000506566356   -0.0900
      6 C6         -6.0814    1.9518   52.2257 C.ar    1  ZINC000506566356   -0.0700
      7 C7         -6.4782    2.9307   53.1171 C.ar    1  ZINC000506566356   -0.1100
      8 C8         -7.7350    2.8757   53.6908 C.ar    1  ZINC000506566356   -0.1000
      9 C9         -8.5950    1.8415   53.3736 C.ar    1  ZINC000506566356   -0.1100
     10 C10        -8.1982    0.8612   52.4813 C.ar    1  ZINC000506566356   -0.0300
     11 Cl11       -9.2782   -0.4380   52.0819 Cl      1  ZINC000506566356   -0.0700
     12 C12        -6.9429    0.9199   51.9032 C.ar    1  ZINC000506566356   -0.1000
     13 C13        -2.0198    2.5908   47.9938 C.2     1  ZINC000506566356    0.5100
     14 O14        -0.9946    2.7451   48.6252 O.2     1  ZINC000506566356   -0.5000
     15 N15        -1.9904    2.6081   46.6464 N.am    1  ZINC000506566356   -0.6300
     16 C16        -0.7787    2.8039   45.9757 C.ar    1  ZINC000506566356    0.1100
     17 C17        -0.1019    4.0089   46.0991 C.ar    1  ZINC000506566356   -0.0800
     18 C18         1.0952    4.1998   45.4353 C.ar    1  ZINC000506566356   -0.1400
     19 C19         1.6212    3.1928   44.6475 C.ar    1  ZINC000506566356   -0.0900
     20 C20         0.9525    1.9892   44.5189 C.ar    1  ZINC000506566356   -0.1900
     21 C21        -0.2447    1.7869   45.1856 C.ar    1  ZINC000506566356    0.1200
     22 O22        -0.9034    0.6042   45.0602 O.3     1  ZINC000506566356   -0.3100
     23 C23        -0.1761   -0.5813   45.3887 C.3     1  ZINC000506566356    0.1400
     24 C24         0.0198   -0.6532   46.8812 C.2     1  ZINC000506566356    0.0500
     25 C25         1.0339   -0.0484   47.5070 C.2     1  ZINC000506566356   -0.2300
     26 S26         0.8864   -0.3861   49.2301 S.3     1  ZINC000506566356    0.1400
     27 C27        -0.5244   -1.3067   48.9375 C.2     1  ZINC000506566356    0.0200
     28 N28        -0.7980   -1.3128   47.6766 N.2     1  ZINC000506566356   -0.4700
     29 H29        -2.6753    0.8086   49.7974 H       1  ZINC000506566356    0.4200
     30 H30        -5.5248    1.4945   49.6741 H       1  ZINC000506566356    0.0800
     31 H31        -4.8116    0.1274   50.5632 H       1  ZINC000506566356    0.0800
     32 H32        -3.9757    1.6126   52.2979 H       1  ZINC000506566356    0.0900
     33 H33        -4.4648    3.0484   51.3664 H       1  ZINC000506566356    0.0900
     34 H34        -5.8062    3.7388   53.3658 H       1  ZINC000506566356    0.1300
     35 H35        -8.0445    3.6409   54.3872 H       1  ZINC000506566356    0.1300
     36 H36        -9.5764    1.7982   53.8223 H       1  ZINC000506566356    0.1300
     37 H37        -6.6327    0.1551   51.2067 H       1  ZINC000506566356    0.1300
     38 H38        -2.8097    2.4847   46.1418 H       1  ZINC000506566356    0.4300
     39 H39        -0.5106    4.7974   46.7136 H       1  ZINC000506566356    0.1500
     40 H40         1.6209    5.1383   45.5319 H       1  ZINC000506566356    0.1300
     41 H41         2.5569    3.3466   44.1307 H       1  ZINC000506566356    0.1300
     42 H42         1.3660    1.2050   43.9020 H       1  ZINC000506566356    0.1400
     43 H43        -0.7350   -1.4549   45.0531 H       1  ZINC000506566356    0.0900
     44 H44         0.7955   -0.5599   44.8953 H       1  ZINC000506566356    0.0900
     45 H45         1.8073    0.5427   47.0395 H       1  ZINC000506566356    0.1800
     46 H46        -1.1050   -1.8069   49.6985 H       1  ZINC000506566356    0.2100
@<TRIPOS>BOND
     1     1     2    2
     2     2     3   am
     3     2    13    1
     4     3     4    1
     5     3    29    1
     6     4     5    1
     7     4    30    1
     8     4    31    1
     9     5     6    1
    10     5    32    1
    11     5    33    1
    12     6    12   ar
    13     6     7   ar
    14     7     8   ar
    15     7    34    1
    16     8     9   ar
    17     8    35    1
    18     9    10   ar
    19     9    36    1
    20    10    11    1
    21    10    12   ar
    22    12    37    1
    23    13    14    2
    24    13    15   am
    25    15    16    1
    26    15    38    1
    27    16    21   ar
    28    16    17   ar
    29    17    18   ar
    30    17    39    1
    31    18    19   ar
    32    18    40    1
    33    19    20   ar
    34    19    41    1
    35    20    21   ar
    36    20    42    1
    37    21    22    1
    38    22    23    1
    39    23    24    1
    40    23    43    1
    41    23    44    1
    42    24    28    1
    43    24    25    2
    44    25    26    1
    45    25    45    1
    46    26    27    1
    47    27    28    2
    48    27    46    1
@<TRIPOS>SUBSTRUCTURE
     1 ZINC000506566356        1 TEMP              0 ****  ****    0 ROOT


##########                                Name:    ZINC000465642058
##########                DOCK_Rotatable_Bonds:                  10
##########                         Heavy_Atoms:                  31
##########                    Molecular_Weight:             420.511
##########                DOCK_Rotatable_Bonds:                  10
##########                       Formal_Charge:          1.2666e-07
##########                     HBond_Acceptors:                   7
##########                        HBond_Donors:                   2
##########                         Heavy_Atoms:                  31
##########                          Grid_Score:          -37.250919
##########                     Grid_vdw_energy:          -35.567574
##########                      Grid_es_energy:           -1.683346
##########           Internal_energy_repulsive:           11.754996

@<TRIPOS>MOLECULE
ZINC000465642058
 59 62 1 0 0
SMALL
USER_CHARGES


@<TRIPOS>ATOM
      1 C1        -13.2862    0.5189   49.5003 C.3     1  ZINC000465642058   -0.1500
      2 C2        -13.7381    0.3329   50.9503 C.3     1  ZINC000465642058    0.0500
      3 O3        -12.6312    0.5547   51.8263 O.3     1  ZINC000465642058   -0.3000
      4 C4        -12.5782   -0.1989   52.9570 C.ar    1  ZINC000465642058    0.1200
      5 C5        -13.6998   -0.3250   53.7645 C.ar    1  ZINC000465642058   -0.1600
      6 C6        -13.6409   -1.0906   54.9080 C.ar    1  ZINC000465642058   -0.1300
      7 C7        -12.4712   -1.7480   55.2650 C.ar    1  ZINC000465642058    0.0700
      8 C8        -11.3475   -1.6140   54.4533 C.ar    1  ZINC000465642058   -0.0700
      9 C9        -11.4044   -0.8504   53.3063 C.ar    1  ZINC000465642058   -0.1100
     10 C10       -10.1824   -0.7130   52.4352 C.3     1  ZINC000465642058    0.1900
     11 N11        -9.4623    0.5115   52.7936 N.am    1  ZINC000465642058   -0.7300
     12 C12        -8.1819    0.6778   52.4074 C.2     1  ZINC000465642058    0.7100
     13 O13        -7.6239   -0.1891   51.7628 O.2     1  ZINC000465642058   -0.5900
     14 N14        -7.5200    1.8049   52.7357 N.am    1  ZINC000465642058   -0.6200
     15 C15        -6.1275    1.9849   52.3175 C.3     1  ZINC000465642058    0.1900
     16 C16        -6.0913    2.6341   50.9580 C.2     1  ZINC000465642058    0.0500
     17 N17        -7.0420    3.3610   50.4294 N.2     1  ZINC000465642058   -0.2700
     18 N18        -6.6204    3.7771   49.1599 N.pl3   1  ZINC000465642058   -0.4700
     19 C19        -5.3861    3.2749   48.9470 C.2     1  ZINC000465642058    0.0600
     20 C20        -5.0329    2.5686   50.0458 C.2     1  ZINC000465642058   -0.2600
     21 C21        -8.1928    2.8502   53.5110 C.3     1  ZINC000465642058    0.1700
     22 C22        -8.0439    2.5591   54.9821 C.ar    1  ZINC000465642058   -0.1100
     23 C23        -6.9643    3.0658   55.6811 C.ar    1  ZINC000465642058   -0.0900
     24 C24        -6.8277    2.7987   57.0305 C.ar    1  ZINC000465642058   -0.1200
     25 C25        -7.7707    2.0252   57.6809 C.ar    1  ZINC000465642058   -0.1200
     26 C26        -8.8508    1.5191   56.9821 C.ar    1  ZINC000465642058   -0.1300
     27 C27        -8.9897    1.7898   55.6337 C.ar    1  ZINC000465642058   -0.1100
     28 O28       -12.6383   -2.4630   56.4127 O.3     1  ZINC000465642058   -0.3000
     29 C29       -13.7897   -1.9664   57.1160 C.3     1  ZINC000465642058    0.0800
     30 H30       -13.5065   -1.1755   57.8106 H       1  ZINC000465642058    0.0900
     31 C31       -14.5061   -3.1005   57.8520 C.3     1  ZINC000465642058   -0.1500
     32 C32       -14.6712   -1.4046   55.9756 C.3     1  ZINC000465642058   -0.1100
     33 H33       -12.4939   -0.1941   49.2724 H       1  ZINC000465642058    0.0700
     34 H34       -14.1306    0.3498   48.8321 H       1  ZINC000465642058    0.0800
     35 H35       -12.9123    1.5335   49.3636 H       1  ZINC000465642058    0.0700
     36 H36       -14.5304    1.0460   51.1782 H       1  ZINC000465642058    0.0600
     37 H37       -14.1121   -0.6818   51.0870 H       1  ZINC000465642058    0.0600
     38 H38       -14.6178    0.1770   53.4968 H       1  ZINC000465642058    0.1300
     39 H39       -10.4283   -2.1139   54.7210 H       1  ZINC000465642058    0.1400
     40 H40        -9.5313   -1.5743   52.5842 H       1  ZINC000465642058    0.0700
     41 H41       -10.4855   -0.6633   51.3894 H       1  ZINC000465642058    0.0800
     42 H42        -9.9072    1.2025   53.3089 H       1  ZINC000465642058    0.4000
     43 H43        -5.6112    2.6200   53.0372 H       1  ZINC000465642058    0.1000
     44 H44        -5.6341    1.0141   52.2698 H       1  ZINC000465642058    0.0900
     45 H45        -7.1264    4.3288   48.5430 H       1  ZINC000465642058    0.4400
     46 H46        -4.7859    3.4153   48.0601 H       1  ZINC000465642058    0.1800
     47 H47        -4.1011    2.0420   50.1903 H       1  ZINC000465642058    0.1500
     48 H48        -7.7431    3.8169   53.2845 H       1  ZINC000465642058    0.0900
     49 H49        -9.2510    2.8717   53.2502 H       1  ZINC000465642058    0.0900
     50 H50        -6.2275    3.6702   55.1729 H       1  ZINC000465642058    0.1300
     51 H51        -5.9838    3.1941   57.5764 H       1  ZINC000465642058    0.1200
     52 H52        -7.6636    1.8160   58.7350 H       1  ZINC000465642058    0.1200
     53 H53        -9.5875    0.9145   57.4902 H       1  ZINC000465642058    0.1200
     54 H54        -9.8335    1.3945   55.0877 H       1  ZINC000465642058    0.1200
     55 H55       -13.8323   -3.5383   58.5884 H       1  ZINC000465642058    0.0700
     56 H56       -15.3886   -2.7061   58.3558 H       1  ZINC000465642058    0.0800
     57 H57       -14.8077   -3.8648   57.1357 H       1  ZINC000465642058    0.0700
     58 H58       -15.1904   -0.5006   56.2939 H       1  ZINC000465642058    0.0900
     59 H59       -15.3793   -2.1554   55.6248 H       1  ZINC000465642058    0.1000
@<TRIPOS>BOND
     1     1     2    1
     2     1    33    1
     3     1    34    1
     4     1    35    1
     5     2     3    1
     6     2    36    1
     7     2    37    1
     8     3     4    1
     9     4     9   ar
    10     4     5   ar
    11     5     6   ar
    12     5    38    1
    13     6    32    1
    14     6     7   ar
    15     7     8   ar
    16     7    28    1
    17     8     9   ar
    18     8    39    1
    19     9    10    1
    20    10    11    1
    21    10    40    1
    22    10    41    1
    23    11    12   am
    24    11    42    1
    25    12    13    2
    26    12    14   am
    27    14    15    1
    28    14    21    1
    29    15    16    1
    30    15    43    1
    31    15    44    1
    32    16    20    1
    33    16    17    2
    34    17    18    1
    35    18    19    1
    36    18    45    1
    37    19    20    2
    38    19    46    1
    39    20    47    1
    40    21    22    1
    41    21    48    1
    42    21    49    1
    43    22    27   ar
    44    22    23   ar
    45    23    24   ar
    46    23    50    1
    47    24    25   ar
    48    24    51    1
    49    25    26   ar
    50    25    52    1
    51    26    27   ar
    52    26    53    1
    53    27    54    1
    54    28    29    1
    55    29    30    1
    56    29    31    1
    57    29    32    1
    58    31    55    1
    59    31    56    1
    60    31    57    1
    61    32    58    1
    62    32    59    1
@<TRIPOS>SUBSTRUCTURE
     1 ZINC000465642058        1 TEMP              0 ****  ****    0 ROOT


##########                                Name:    ZINC000992031068
##########                DOCK_Rotatable_Bonds:                   8
##########                         Heavy_Atoms:                  25
##########                    Molecular_Weight:             342.401
##########                DOCK_Rotatable_Bonds:                   8
##########                       Formal_Charge:           0.0199999
##########                     HBond_Acceptors:                   8
##########                        HBond_Donors:                   2
##########                         Heavy_Atoms:                  25
##########                          Grid_Score:          -37.211826
##########                     Grid_vdw_energy:          -35.821129
##########                      Grid_es_energy:           -1.390698
##########           Internal_energy_repulsive:            7.910033

@<TRIPOS>MOLECULE
ZINC000992031068
 47 49 1 0 0
SMALL
USER_CHARGES


@<TRIPOS>ATOM
      1 C1          0.5241    0.1223   45.8635 C.3     1  ZINC000992031068   -0.1100
      2 C2         -0.3144   -0.0014   47.1096 C.ar    1  ZINC000992031068    0.1800
      3 C3         -1.2823    0.9487   47.4024 C.ar    1  ZINC000992031068   -0.1700
      4 C4         -2.0330    0.7898   48.5678 C.ar    1  ZINC000992031068    0.1300
      5 C5         -3.0821    1.7757   48.9300 C.2     1  ZINC000992031068    0.5700
      6 O6         -3.1420    2.8403   48.3481 O.2     1  ZINC000992031068   -0.5200
      7 N7         -3.9680    1.4897   49.9046 N.am    1  ZINC000992031068   -0.7100
      8 C8         -5.0044    2.4619   50.2608 C.3     1  ZINC000992031068    0.1300
      9 C9         -5.6517    2.0549   51.5860 C.3     1  ZINC000992031068   -0.1200
     10 C10        -7.0029    2.7408   51.8480 C.3     1  ZINC000992031068   -0.1400
     11 C11        -7.4906    1.3923   52.4035 C.3     1  ZINC000992031068    0.1200
     12 N12        -8.8661    1.0632   52.0216 N.am    1  ZINC000992031068   -0.7200
     13 C13        -9.2490   -0.2256   51.9263 C.2     1  ZINC000992031068    0.5200
     14 O14        -8.4553   -1.1126   52.1582 O.2     1  ZINC000992031068   -0.5200
     15 C15       -10.6635   -0.5640   51.5317 C.3     1  ZINC000992031068   -0.0800
     16 C16       -11.5298   -0.6164   52.7638 C.2     1  ZINC000992031068    0.1000
     17 C17       -11.1283   -0.9694   54.0069 C.2     1  ZINC000992031068   -0.2500
     18 C18       -12.2358   -0.8850   54.8570 C.2     1  ZINC000992031068    0.0500
     19 N19       -13.2652   -0.4954   54.1497 N.2     1  ZINC000992031068   -0.2900
     20 N20       -12.8435   -0.3141   52.8261 N.pl3   1  ZINC000992031068   -0.3700
     21 C21       -13.6826    0.1184   51.7058 C.3     1  ZINC000992031068    0.1000
     22 C22        -6.4281    0.7296   51.5110 C.3     1  ZINC000992031068   -0.1400
     23 N23        -1.7934   -0.2607   49.3489 N.ar    1  ZINC000992031068   -0.5000
     24 C24        -0.8647   -1.1371   49.0311 C.ar    1  ZINC000992031068    0.3000
     25 N25        -0.1409   -1.0194   47.9349 N.ar    1  ZINC000992031068   -0.5100
     26 H26         0.0285   -0.3912   45.0396 H       1  ZINC000992031068    0.0900
     27 H27         0.6489    1.1757   45.6125 H       1  ZINC000992031068    0.0900
     28 H28         1.5014   -0.3281   46.0370 H       1  ZINC000992031068    0.0900
     29 H29        -1.4500    1.7896   46.7457 H       1  ZINC000992031068    0.1600
     30 H30        -3.9195    0.6401   50.3701 H       1  ZINC000992031068    0.4100
     31 H31        -4.5557    3.4499   50.3639 H       1  ZINC000992031068    0.0700
     32 H32        -5.7631    2.4874   49.4785 H       1  ZINC000992031068    0.0800
     33 H33        -4.9621    2.1099   52.4284 H       1  ZINC000992031068    0.1000
     34 H34        -6.9538    3.5300   52.5981 H       1  ZINC000992031068    0.0800
     35 H35        -7.5186    3.0508   50.9390 H       1  ZINC000992031068    0.0900
     36 H36        -7.3062    1.2673   53.4705 H       1  ZINC000992031068    0.1200
     37 H37        -9.5013    1.7727   51.8374 H       1  ZINC000992031068    0.4000
     38 H38       -11.0438    0.1988   50.8524 H       1  ZINC000992031068    0.1200
     39 H39       -10.6798   -1.5340   51.0346 H       1  ZINC000992031068    0.1100
     40 H40       -10.1293   -1.2645   54.2921 H       1  ZINC000992031068    0.1500
     41 H41       -12.2405   -1.1043   55.9146 H       1  ZINC000992031068    0.1800
     42 H42       -13.6623    1.2059   51.6354 H       1  ZINC000992031068    0.0800
     43 H43       -13.3025   -0.3128   50.7796 H       1  ZINC000992031068    0.0800
     44 H44       -14.7070   -0.2162   51.8689 H       1  ZINC000992031068    0.0900
     45 H45        -6.7867    0.4897   50.5099 H       1  ZINC000992031068    0.0900
     46 H46        -5.9150   -0.1048   51.9891 H       1  ZINC000992031068    0.0800
     47 H47        -0.6931   -1.9793   49.6849 H       1  ZINC000992031068    0.2100
@<TRIPOS>BOND
     1     1     2    1
     2     1    26    1
     3     1    27    1
     4     1    28    1
     5     2    25   ar
     6     2     3   ar
     7     3     4   ar
     8     3    29    1
     9     4     5    1
    10     4    23   ar
    11     5     6    2
    12     5     7   am
    13     7     8    1
    14     7    30    1
    15     8     9    1
    16     8    31    1
    17     8    32    1
    18     9    22    1
    19     9    10    1
    20     9    33    1
    21    10    11    1
    22    10    34    1
    23    10    35    1
    24    11    12    1
    25    11    22    1
    26    11    36    1
    27    12    13   am
    28    12    37    1
    29    13    14    2
    30    13    15    1
    31    15    16    1
    32    15    38    1
    33    15    39    1
    34    16    20    1
    35    16    17    2
    36    17    18    1
    37    17    40    1
    38    18    19    2
    39    18    41    1
    40    19    20    1
    41    20    21    1
    42    21    42    1
    43    21    43    1
    44    21    44    1
    45    22    45    1
    46    22    46    1
    47    23    24   ar
    48    24    25   ar
    49    24    47    1
@<TRIPOS>SUBSTRUCTURE
     1 ZINC000992031068        1 TEMP              0 ****  ****    0 ROOT


##########                                Name:    ZINC000185180600
##########                DOCK_Rotatable_Bonds:                   7
##########                         Heavy_Atoms:                  26
##########                    Molecular_Weight:             395.953
##########                DOCK_Rotatable_Bonds:                   7
##########                       Formal_Charge:          0.00999977
##########                     HBond_Acceptors:                   7
##########                        HBond_Donors:                   0
##########                         Heavy_Atoms:                  26
##########                          Grid_Score:          -37.106438
##########                     Grid_vdw_energy:          -35.789513
##########                      Grid_es_energy:           -1.316927
##########           Internal_energy_repulsive:           23.554930

@<TRIPOS>MOLECULE
ZINC000185180600
 52 53 1 0 0
SMALL
USER_CHARGES


@<TRIPOS>ATOM
      1 C1         -9.8406    1.3467   55.8703 C.3     1  ZINC000185180600   -0.1500
      2 C2        -10.9517    0.5119   55.2305 C.3     1  ZINC000185180600   -0.0900
      3 C3        -11.8935   -0.0044   56.3201 C.3     1  ZINC000185180600   -0.1500
      4 C4        -11.7382    1.3790   54.2454 C.3     1  ZINC000185180600   -0.1300
      5 C5        -10.8817    1.6482   53.0066 C.3     1  ZINC000185180600    0.1300
      6 H6        -10.0169    2.2498   53.2864 H       1  ZINC000185180600    0.1100
      7 C7        -11.7124    2.4022   51.9662 C.3     1  ZINC000185180600   -0.1600
      8 N8        -10.4284    0.3754   52.4402 N.am    1  ZINC000185180600   -0.6000
      9 C9        -11.3859   -0.7118   52.2225 C.3     1  ZINC000185180600    0.0700
     10 C10        -9.1306    0.2046   52.1195 C.2     1  ZINC000185180600    0.5400
     11 O11        -8.7557   -0.8487   51.6493 O.2     1  ZINC000185180600   -0.5300
     12 C12        -8.1452    1.3222   52.3451 C.3     1  ZINC000185180600   -0.5000
     13 S13        -6.6324    0.9947   51.3991 S.o     1  ZINC000185180600    1.3200
     14 O14        -6.0169   -0.1903   51.8854 O.2     1  ZINC000185180600   -0.8000
     15 C15        -5.5874    2.4242   51.7929 C.3     1  ZINC000185180600   -0.3900
     16 C16        -4.2709    2.2983   51.0704 C.2     1  ZINC000185180600    0.1000
     17 N17        -4.0595    1.6139   49.9751 N.2     1  ZINC000185180600   -0.2800
     18 N18        -2.7095    1.7510   49.6265 N.pl3   1  ZINC000185180600   -0.3200
     19 C19        -2.0811    1.1712   48.5153 C.ar    1  ZINC000185180600    0.1700
     20 C20        -1.4656   -0.0677   48.6326 C.ar    1  ZINC000185180600   -0.1300
     21 C21        -0.8471   -0.6368   47.5367 C.ar    1  ZINC000185180600   -0.0800
     22 C22        -0.8402    0.0272   46.3225 C.ar    1  ZINC000185180600   -0.0500
     23 Cl23       -0.0620   -0.6908   44.9467 Cl      1  ZINC000185180600   -0.0600
     24 C24        -1.4532    1.2622   46.2031 C.ar    1  ZINC000185180600   -0.0800
     25 C25        -2.0782    1.8325   47.2946 C.ar    1  ZINC000185180600   -0.1100
     26 C26        -2.1200    2.5416   50.5516 C.2     1  ZINC000185180600    0.0600
     27 C27        -3.0657    2.8980   51.4517 C.2     1  ZINC000185180600   -0.2500
     28 H28        -9.2803    0.7290   56.5722 H       1  ZINC000185180600    0.0500
     29 H29        -9.1696    1.7145   55.0942 H       1  ZINC000185180600    0.0600
     30 H30       -10.2804    2.1914   56.4007 H       1  ZINC000185180600    0.0500
     31 H31       -10.5119   -0.3329   54.7002 H       1  ZINC000185180600    0.0700
     32 H32       -11.3524   -0.6881   56.9742 H       1  ZINC000185180600    0.0500
     33 H33       -12.2692    0.8360   56.9038 H       1  ZINC000185180600    0.0500
     34 H34       -12.7301   -0.5290   55.8586 H       1  ZINC000185180600    0.0500
     35 H35       -12.6496    0.8588   53.9510 H       1  ZINC000185180600    0.0700
     36 H36       -11.9972    2.3251   54.7206 H       1  ZINC000185180600    0.0800
     37 H37       -12.5772    1.8006   51.6863 H       1  ZINC000185180600    0.0600
     38 H38       -12.0496    3.3492   52.3876 H       1  ZINC000185180600    0.0700
     39 H39       -11.1022    2.5941   51.0835 H       1  ZINC000185180600    0.0600
     40 H40       -11.8106   -0.6271   51.2221 H       1  ZINC000185180600    0.0600
     41 H41       -10.8760   -1.6702   52.3206 H       1  ZINC000185180600    0.0700
     42 H42       -12.1836   -0.6471   52.9624 H       1  ZINC000185180600    0.0800
     43 H43        -8.5829    2.2645   52.0156 H       1  ZINC000185180600    0.1500
     44 H44        -7.9037    1.3850   53.4062 H       1  ZINC000185180600    0.1200
     45 H45        -6.0890    3.3389   51.4773 H       1  ZINC000185180600    0.1400
     46 H46        -5.4099    2.4594   52.8678 H       1  ZINC000185180600    0.1000
     47 H47        -1.4700   -0.5858   49.5802 H       1  ZINC000185180600    0.1400
     48 H48        -0.3681   -1.6005   47.6275 H       1  ZINC000185180600    0.1500
     49 H49        -1.4462    1.7786   45.2546 H       1  ZINC000185180600    0.1400
     50 H50        -2.5564    2.7963   47.2010 H       1  ZINC000185180600    0.1500
     51 H51        -1.0818    2.8391   50.5669 H       1  ZINC000185180600    0.1800
     52 H52        -2.9149    3.5278   52.3159 H       1  ZINC000185180600    0.1700
@<TRIPOS>BOND
     1     1     2    1
     2     1    28    1
     3     1    29    1
     4     1    30    1
     5     2     3    1
     6     2     4    1
     7     2    31    1
     8     3    32    1
     9     3    33    1
    10     3    34    1
    11     4     5    1
    12     4    35    1
    13     4    36    1
    14     5     6    1
    15     5     7    1
    16     5     8    1
    17     7    37    1
    18     7    38    1
    19     7    39    1
    20     8     9    1
    21     8    10   am
    22     9    40    1
    23     9    41    1
    24     9    42    1
    25    10    11    2
    26    10    12    1
    27    12    13    1
    28    12    43    1
    29    12    44    1
    30    13    14    2
    31    13    15    1
    32    15    16    1
    33    15    45    1
    34    15    46    1
    35    16    27    1
    36    16    17    2
    37    17    18    1
    38    18    19    1
    39    18    26    1
    40    19    25   ar
    41    19    20   ar
    42    20    21   ar
    43    20    47    1
    44    21    22   ar
    45    21    48    1
    46    22    23    1
    47    22    24   ar
    48    24    25   ar
    49    24    49    1
    50    25    50    1
    51    26    27    2
    52    26    51    1
    53    27    52    1
@<TRIPOS>SUBSTRUCTURE
     1 ZINC000185180600        1 TEMP              0 ****  ****    0 ROOT


##########                                Name:    ZINC000512239524
##########                DOCK_Rotatable_Bonds:                   9
##########                         Heavy_Atoms:                  31
##########                    Molecular_Weight:             424.518
##########                DOCK_Rotatable_Bonds:                   9
##########                       Formal_Charge:          0.00999919
##########                     HBond_Acceptors:                   7
##########                        HBond_Donors:                   1
##########                         Heavy_Atoms:                  31
##########                          Grid_Score:          -36.716770
##########                     Grid_vdw_energy:          -35.885284
##########                      Grid_es_energy:           -0.831487
##########           Internal_energy_repulsive:           30.110664

@<TRIPOS>MOLECULE
ZINC000512239524
 60 63 1 0 0
SMALL
USER_CHARGES


@<TRIPOS>ATOM
      1 C1         -0.2376    3.2909   48.5513 C.3     1  ZINC000512239524   -0.1600
      2 C2         -0.9477    2.0193   49.0202 C.3     1  ZINC000512239524    0.2000
      3 H3         -0.4754    1.6548   49.9324 H       1  ZINC000512239524    0.1100
      4 N4         -2.3574    2.3168   49.2854 N.am    1  ZINC000512239524   -0.7400
      5 C5         -2.7186    2.8818   50.4545 C.2     1  ZINC000512239524    0.7100
      6 O6         -1.8743    3.1447   51.2891 O.2     1  ZINC000512239524   -0.5800
      7 N7         -4.0155    3.1555   50.6985 N.am    1  ZINC000512239524   -0.6300
      8 C8         -5.0478    2.8383   49.7023 C.3     1  ZINC000512239524    0.1300
      9 C9         -6.1324    1.9871   50.3701 C.3     1  ZINC000512239524   -0.1100
     10 C10        -6.6573    2.7168   51.6087 C.3     1  ZINC000512239524   -0.1000
     11 C11        -7.7484    1.8979   52.2490 C.2     1  ZINC000512239524    0.5300
     12 O12        -7.7753    0.6955   52.0926 O.2     1  ZINC000512239524   -0.5300
     13 N13        -8.6942    2.5017   52.9956 N.am    1  ZINC000512239524   -0.5800
     14 C14        -9.7538    1.7054   53.6195 C.3     1  ZINC000512239524    0.1500
     15 C15       -10.5776    1.0382   52.5483 C.ar    1  ZINC000512239524   -0.1100
     16 C16       -11.4922    1.7758   51.8200 C.ar    1  ZINC000512239524   -0.0900
     17 C17       -12.2478    1.1638   50.8374 C.ar    1  ZINC000512239524   -0.1200
     18 C18       -12.0885   -0.1855   50.5829 C.ar    1  ZINC000512239524   -0.1100
     19 C19       -11.1734   -0.9228   51.3106 C.ar    1  ZINC000512239524   -0.1200
     20 C20       -10.4146   -0.3100   52.2902 C.ar    1  ZINC000512239524   -0.1100
     21 C21        -8.6626    3.9543   53.1832 C.3     1  ZINC000512239524    0.0700
     22 C22        -9.3681    4.8173   52.1352 C.3     1  ZINC000512239524   -0.1900
     23 C23        -9.9806    4.6509   53.5273 C.3     1  ZINC000512239524   -0.2000
     24 C24        -5.5154    2.9152   52.6081 C.3     1  ZINC000512239524   -0.1400
     25 C25        -4.4246    3.7713   51.9682 C.3     1  ZINC000512239524    0.1100
     26 C26        -0.8499    0.9649   47.9479 C.ar    1  ZINC000512239524   -0.0800
     27 C27        -1.2921    1.2200   46.6595 C.ar    1  ZINC000512239524   -0.1400
     28 C28        -1.1861    0.2289   45.7017 C.ar    1  ZINC000512239524    0.1000
     29 N29        -0.6723   -0.9479   46.0013 N.ar    1  ZINC000512239524   -0.4600
     30 C30        -0.2410   -1.2278   47.2156 C.ar    1  ZINC000512239524    0.0800
     31 C31        -0.3092   -0.2838   48.2256 C.ar    1  ZINC000512239524    0.0600
     32 F32         0.1344   -0.5768   49.4676 F       1  ZINC000512239524   -0.1200
     33 H33        -0.3084    4.0535   49.3268 H       1  ZINC000512239524    0.0700
     34 H34         0.8113    3.0695   48.3539 H       1  ZINC000512239524    0.0700
     35 H35        -0.7099    3.6554   47.6391 H       1  ZINC000512239524    0.0600
     36 H36        -3.0310    2.1071   48.6196 H       1  ZINC000512239524    0.3900
     37 H37        -5.4881    3.7615   49.3256 H       1  ZINC000512239524    0.0700
     38 H38        -4.6016    2.2811   48.8785 H       1  ZINC000512239524    0.1000
     39 H39        -6.9510    1.8254   49.6688 H       1  ZINC000512239524    0.0900
     40 H40        -5.7105    1.0264   50.6653 H       1  ZINC000512239524    0.0800
     41 H41        -7.0564    3.6880   51.3161 H       1  ZINC000512239524    0.1000
     42 H42        -9.3074    0.9453   54.2606 H       1  ZINC000512239524    0.0900
     43 H43       -10.3928    2.3554   54.2172 H       1  ZINC000512239524    0.1000
     44 H44       -11.6166    2.8300   52.0188 H       1  ZINC000512239524    0.1300
     45 H45       -12.9628    1.7399   50.2688 H       1  ZINC000512239524    0.1200
     46 H46       -12.6794   -0.6638   49.8156 H       1  ZINC000512239524    0.1200
     47 H47       -11.0491   -1.9771   51.1120 H       1  ZINC000512239524    0.1200
     48 H48        -9.6996   -0.8861   52.8588 H       1  ZINC000512239524    0.1200
     49 H49        -7.7518    4.3507   53.6318 H       1  ZINC000512239524    0.1300
     50 H50        -8.9212    5.7819   51.8941 H       1  ZINC000512239524    0.1100
     51 H51        -9.8556    4.3045   51.3062 H       1  ZINC000512239524    0.1000
     52 H52       -10.8712    4.0285   53.6141 H       1  ZINC000512239524    0.1100
     53 H53        -9.9368    5.5059   54.2019 H       1  ZINC000512239524    0.1000
     54 H54        -5.8950    3.4141   53.4999 H       1  ZINC000512239524    0.0900
     55 H55        -5.0993    1.9457   52.8823 H       1  ZINC000512239524    0.0700
     56 H56        -3.5676    3.8325   52.6389 H       1  ZINC000512239524    0.0800
     57 H57        -4.8117    4.7717   51.7743 H       1  ZINC000512239524    0.0800
     58 H58        -1.7147    2.1813   46.4068 H       1  ZINC000512239524    0.1400
     59 H59        -1.5287    0.4206   44.6956 H       1  ZINC000512239524    0.1700
     60 H60         0.1735   -2.2032   47.4234 H       1  ZINC000512239524    0.1700
@<TRIPOS>BOND
     1     1     2    1
     2     1    33    1
     3     1    34    1
     4     1    35    1
     5     2     3    1
     6     2     4    1
     7     2    26    1
     8     4     5   am
     9     4    36    1
    10     5     6    2
    11     5     7   am
    12     7    25    1
    13     7     8    1
    14     8     9    1
    15     8    37    1
    16     8    38    1
    17     9    10    1
    18     9    39    1
    19     9    40    1
    20    10    11    1
    21    10    24    1
    22    10    41    1
    23    11    12    2
    24    11    13   am
    25    13    14    1
    26    13    21    1
    27    14    15    1
    28    14    42    1
    29    14    43    1
    30    15    20   ar
    31    15    16   ar
    32    16    17   ar
    33    16    44    1
    34    17    18   ar
    35    17    45    1
    36    18    19   ar
    37    18    46    1
    38    19    20   ar
    39    19    47    1
    40    20    48    1
    41    21    23    1
    42    21    22    1
    43    21    49    1
    44    22    23    1
    45    22    50    1
    46    22    51    1
    47    23    52    1
    48    23    53    1
    49    24    25    1
    50    24    54    1
    51    24    55    1
    52    25    56    1
    53    25    57    1
    54    26    31   ar
    55    26    27   ar
    56    27    28   ar
    57    27    58    1
    58    28    29   ar
    59    28    59    1
    60    29    30   ar
    61    30    31   ar
    62    30    60    1
    63    31    32    1
@<TRIPOS>SUBSTRUCTURE
     1 ZINC000512239524        1 TEMP              0 ****  ****    0 ROOT


##########                                Name:    ZINC001596273020
##########                DOCK_Rotatable_Bonds:                  11
##########                         Heavy_Atoms:                  25
##########                    Molecular_Weight:             355.478
##########                DOCK_Rotatable_Bonds:                  11
##########                       Formal_Charge:          -0.0499996
##########                     HBond_Acceptors:                   7
##########                        HBond_Donors:                   2
##########                         Heavy_Atoms:                  25
##########                          Grid_Score:          -36.662525
##########                     Grid_vdw_energy:          -25.399591
##########                      Grid_es_energy:          -11.262935
##########           Internal_energy_repulsive:           26.019482

@<TRIPOS>MOLECULE
ZINC001596273020
 58 59 1 0 0
SMALL
USER_CHARGES


@<TRIPOS>ATOM
      1 C1         -6.1740    5.2011   65.1410 C.3     1  ZINC001596273020   -0.1900
      2 C2         -6.9469    3.9589   64.6932 C.3     1  ZINC001596273020   -0.0200
      3 N3         -6.0488    3.0647   63.9504 N.4     1  ZINC001596273020   -0.3900
      4 H4         -5.6886    3.5468   63.1405 H       1  ZINC001596273020    0.4300
      5 C5         -4.9331    2.6614   64.8166 C.3     1  ZINC001596273020   -0.0100
      6 C6         -5.4794    1.9304   66.0446 C.3     1  ZINC001596273020   -0.1900
      7 C7         -6.7909    1.8721   63.5204 C.3     1  ZINC001596273020   -0.0100
      8 C8         -7.9245    2.2880   62.5807 C.3     1  ZINC001596273020    0.0300
      9 O9         -8.7764    1.1669   62.3367 O.3     1  ZINC001596273020   -0.3900
     10 C10        -8.1684    0.1333   61.5594 C.3     1  ZINC001596273020    0.0500
     11 C11        -9.1286   -1.0527   61.4481 C.3     1  ZINC001596273020    0.1400
     12 N12       -10.3194   -0.6482   60.6967 N.am    1  ZINC001596273020   -0.7500
     13 C13       -11.4094   -1.4407   60.6837 C.2     1  ZINC001596273020    0.7200
     14 O14       -11.4039   -2.4922   61.2943 O.2     1  ZINC001596273020   -0.6000
     15 N15       -12.5055   -1.0678   59.9938 N.am    1  ZINC001596273020   -0.6300
     16 C16       -12.6974    0.1636   59.1884 C.3     1  ZINC001596273020    0.1100
     17 C17       -13.4559   -0.3399   57.9266 C.3     1  ZINC001596273020   -0.0800
     18 H18       -14.1311    0.4373   57.5687 H       1  ZINC001596273020    0.1200
     19 C19       -12.4197   -0.6465   56.8638 C.3     1  ZINC001596273020   -0.1000
     20 C20       -12.8556   -1.7539   55.9146 C.3     1  ZINC001596273020   -0.1200
     21 C21       -13.1264   -3.0144   56.7468 C.3     1  ZINC001596273020   -0.1200
     22 C22       -14.3674   -2.7504   57.5934 C.3     1  ZINC001596273020   -0.0800
     23 C23       -14.2571   -1.5199   58.4308 C.3     1  ZINC001596273020   -0.1400
     24 C24       -15.6647   -1.0058   58.5900 C.2     1  ZINC001596273020    0.5000
     25 O25       -16.6110   -1.7285   58.3279 O.co2   1  ZINC001596273020   -0.6900
     26 O26       -15.8573    0.1330   58.9809 O.co2   1  ZINC001596273020   -0.6900
     27 C27       -13.7894   -1.7989   59.8633 C.3     1  ZINC001596273020    0.1600
     28 H28        -5.4168    4.9143   65.8706 H       1  ZINC001596273020    0.0800
     29 H29        -5.6916    5.6596   64.2779 H       1  ZINC001596273020    0.0800
     30 H30        -6.8631    5.9141   65.5937 H       1  ZINC001596273020    0.1000
     31 H31        -7.3362    3.4382   65.5681 H       1  ZINC001596273020    0.1300
     32 H32        -7.7748    4.2583   64.0504 H       1  ZINC001596273020    0.1300
     33 H33        -4.2666    1.9980   64.2655 H       1  ZINC001596273020    0.1300
     34 H34        -4.3825    3.5464   65.1357 H       1  ZINC001596273020    0.1300
     35 H35        -6.0565    2.6256   66.6544 H       1  ZINC001596273020    0.0800
     36 H36        -6.1209    1.1098   65.7234 H       1  ZINC001596273020    0.0800
     37 H37        -4.6498    1.5350   66.6310 H       1  ZINC001596273020    0.1000
     38 H38        -6.1167    1.1933   62.9982 H       1  ZINC001596273020    0.1400
     39 H39        -7.2084    1.3697   64.3931 H       1  ZINC001596273020    0.1400
     40 H40        -8.5020    3.0898   63.0406 H       1  ZINC001596273020    0.1000
     41 H41        -7.5048    2.6375   61.6374 H       1  ZINC001596273020    0.0700
     42 H42        -7.9431    0.5131   60.5629 H       1  ZINC001596273020    0.0700
     43 H43        -7.2463   -0.1898   62.0424 H       1  ZINC001596273020    0.0700
     44 H44        -8.6333   -1.8736   60.9296 H       1  ZINC001596273020    0.0900
     45 H45        -9.4218   -1.3776   62.4463 H       1  ZINC001596273020    0.0700
     46 H46       -10.3234    0.1901   60.2087 H       1  ZINC001596273020    0.3900
     47 H47       -13.3004    0.8890   59.7345 H       1  ZINC001596273020    0.0700
     48 H48       -11.7352    0.5943   58.9111 H       1  ZINC001596273020    0.0600
     49 H49       -12.2312    0.2580   56.2856 H       1  ZINC001596273020    0.0500
     50 H50       -11.4933   -0.9476   57.3530 H       1  ZINC001596273020    0.0400
     51 H51       -13.7646   -1.4549   55.3926 H       1  ZINC001596273020    0.0700
     52 H52       -12.0639   -1.9525   55.1922 H       1  ZINC001596273020    0.0500
     53 H53       -13.3033   -3.8628   56.0858 H       1  ZINC001596273020    0.0600
     54 H54       -12.2740   -3.2202   57.3942 H       1  ZINC001596273020    0.0500
     55 H55       -15.2275   -2.6489   56.9314 H       1  ZINC001596273020    0.0600
     56 H56       -14.5324   -3.6058   58.2485 H       1  ZINC001596273020    0.0600
     57 H57       -13.6390   -2.8681   60.0123 H       1  ZINC001596273020    0.0700
     58 H58       -14.5130   -1.4125   60.5812 H       1  ZINC001596273020    0.0700
@<TRIPOS>BOND
     1     1     2    1
     2     1    28    1
     3     1    29    1
     4     1    30    1
     5     2     3    1
     6     2    31    1
     7     2    32    1
     8     3     4    1
     9     3     5    1
    10     3     7    1
    11     5     6    1
    12     5    33    1
    13     5    34    1
    14     6    35    1
    15     6    36    1
    16     6    37    1
    17     7     8    1
    18     7    38    1
    19     7    39    1
    20     8     9    1
    21     8    40    1
    22     8    41    1
    23     9    10    1
    24    10    11    1
    25    10    42    1
    26    10    43    1
    27    11    12    1
    28    11    44    1
    29    11    45    1
    30    12    13   am
    31    12    46    1
    32    13    14    2
    33    13    15   am
    34    15    27    1
    35    15    16    1
    36    16    17    1
    37    16    47    1
    38    16    48    1
    39    17    18    1
    40    17    23    1
    41    17    19    1
    42    19    20    1
    43    19    49    1
    44    19    50    1
    45    20    21    1
    46    20    51    1
    47    20    52    1
    48    21    22    1
    49    21    53    1
    50    21    54    1
    51    22    23    1
    52    22    55    1
    53    22    56    1
    54    23    24    1
    55    23    27    1
    56    24    25   ar
    57    24    26   ar
    58    27    57    1
    59    27    58    1
@<TRIPOS>SUBSTRUCTURE
     1 ZINC001596273020        1 TEMP              0 ****  ****    0 ROOT


##########                                Name:    ZINC000503413572
##########                DOCK_Rotatable_Bonds:                   7
##########                         Heavy_Atoms:                  26
##########                    Molecular_Weight:             355.375
##########                DOCK_Rotatable_Bonds:                   7
##########                       Formal_Charge:        -1.71363e-07
##########                     HBond_Acceptors:                   9
##########                        HBond_Donors:                   1
##########                         Heavy_Atoms:                  26
##########                          Grid_Score:          -36.626141
##########                     Grid_vdw_energy:          -35.952930
##########                      Grid_es_energy:           -0.673211
##########           Internal_energy_repulsive:            8.145978

@<TRIPOS>MOLECULE
ZINC000503413572
 44 47 1 0 0
SMALL
USER_CHARGES


@<TRIPOS>ATOM
      1 C1         -0.7933   -1.1090   48.6113 C.3     1  ZINC000503413572   -0.1200
      2 C2         -0.5936   -0.3083   47.3503 C.ar    1  ZINC000503413572   -0.0200
      3 C3         -0.2535   -0.9458   46.1737 C.ar    1  ZINC000503413572   -0.1400
      4 C4         -0.0703   -0.2103   45.0144 C.ar    1  ZINC000503413572    0.1300
      5 F5          0.2621   -0.8358   43.8640 F       1  ZINC000503413572   -0.1300
      6 C6         -0.2280    1.1652   45.0330 C.ar    1  ZINC000503413572   -0.1400
      7 C7         -0.5682    1.8064   46.2082 C.ar    1  ZINC000503413572   -0.0700
      8 C8         -0.7572    1.0704   47.3697 C.ar    1  ZINC000503413572    0.1000
      9 N9         -1.1033    1.7197   48.5640 N.pl3   1  ZINC000503413572   -0.3100
     10 C10        -2.3375    1.8056   49.1057 C.2     1  ZINC000503413572    0.1100
     11 C11        -2.2122    2.5226   50.2620 C.2     1  ZINC000503413572   -0.1000
     12 C12        -3.3087    2.8649   51.1874 C.2     1  ZINC000503413572    0.6100
     13 O13        -3.0874    3.5558   52.1631 O.2     1  ZINC000503413572   -0.5300
     14 N14        -4.5559    2.4118   50.9514 N.am    1  ZINC000503413572   -0.7200
     15 C15        -5.6453    2.7532   51.8695 C.3     1  ZINC000503413572    0.1100
     16 C16        -6.9880    2.4383   51.2072 C.3     1  ZINC000503413572    0.1000
     17 N17        -7.3562    1.0481   51.4866 N.pl3   1  ZINC000503413572   -0.4700
     18 C18        -6.5970   -0.0542   51.2758 C.2     1  ZINC000503413572    0.1500
     19 N19        -7.2974   -1.0870   51.6588 N.2     1  ZINC000503413572   -0.2900
     20 N20        -8.4426   -0.6962   52.0940 N.2     1  ZINC000503413572   -0.2900
     21 C21        -8.5228    0.6042   52.0137 C.2     1  ZINC000503413572    0.2100
     22 C22        -9.6989    1.4533   52.4220 C.3     1  ZINC000503413572   -0.1000
     23 C23       -11.0975    0.9297   52.0899 C.3     1  ZINC000503413572   -0.1500
     24 C24       -10.6013    0.9211   53.5371 C.3     1  ZINC000503413572   -0.1600
     25 N25        -0.9209    2.8633   50.4137 N.2     1  ZINC000503413572   -0.2000
     26 N26        -0.2337    2.3997   49.4286 N.2     1  ZINC000503413572   -0.0400
     27 H27        -1.8522   -1.3364   48.7334 H       1  ZINC000503413572    0.0900
     28 H28        -0.2273   -2.0383   48.5450 H       1  ZINC000503413572    0.0800
     29 H29        -0.4445   -0.5315   49.4674 H       1  ZINC000503413572    0.0700
     30 H30        -0.1297   -2.0185   46.1574 H       1  ZINC000503413572    0.1500
     31 H31        -0.0844    1.7372   44.1282 H       1  ZINC000503413572    0.1500
     32 H32        -0.6907    2.8793   46.2224 H       1  ZINC000503413572    0.1500
     33 H33        -3.2483    1.3882   48.7023 H       1  ZINC000503413572    0.2100
     34 H34        -4.7322    1.8595   50.1736 H       1  ZINC000503413572    0.4100
     35 H35        -5.5457    2.1693   52.7845 H       1  ZINC000503413572    0.0800
     36 H36        -5.5987    3.8155   52.1095 H       1  ZINC000503413572    0.0800
     37 H37        -7.7542    3.1040   51.6046 H       1  ZINC000503413572    0.1100
     38 H38        -6.9045    2.5825   50.1300 H       1  ZINC000503413572    0.1100
     39 H39        -5.5980   -0.0747   50.8662 H       1  ZINC000503413572    0.2200
     40 H40        -9.5400    2.5307   52.3742 H       1  ZINC000503413572    0.1200
     41 H41       -11.8591    1.6625   51.8233 H       1  ZINC000503413572    0.1100
     42 H42       -11.1671   -0.0291   51.5760 H       1  ZINC000503413572    0.1100
     43 H43       -10.3443   -0.0432   53.9754 H       1  ZINC000503413572    0.1000
     44 H44       -11.0362    1.6484   54.2227 H       1  ZINC000503413572    0.1100
@<TRIPOS>BOND
     1     1     2    1
     2     1    27    1
     3     1    28    1
     4     1    29    1
     5     2     8   ar
     6     2     3   ar
     7     3     4   ar
     8     3    30    1
     9     4     5    1
    10     4     6   ar
    11     6     7   ar
    12     6    31    1
    13     7     8   ar
    14     7    32    1
    15     8     9    1
    16     9    26    1
    17     9    10    1
    18    10    11    2
    19    10    33    1
    20    11    12    1
    21    11    25    1
    22    12    13    2
    23    12    14   am
    24    14    15    1
    25    14    34    1
    26    15    16    1
    27    15    35    1
    28    15    36    1
    29    16    17    1
    30    16    37    1
    31    16    38    1
    32    17    21    1
    33    17    18    1
    34    18    19    2
    35    18    39    1
    36    19    20    1
    37    20    21    2
    38    21    22    1
    39    22    24    1
    40    22    23    1
    41    22    40    1
    42    23    24    1
    43    23    41    1
    44    23    42    1
    45    24    43    1
    46    24    44    1
    47    25    26    2
@<TRIPOS>SUBSTRUCTURE
     1 ZINC000503413572        1 TEMP              0 ****  ****    0 ROOT


##########                                Name:    ZINC001090961577
##########                DOCK_Rotatable_Bonds:                   9
##########                         Heavy_Atoms:                  24
##########                    Molecular_Weight:             352.458
##########                DOCK_Rotatable_Bonds:                   9
##########                       Formal_Charge:                0.02
##########                     HBond_Acceptors:                   8
##########                        HBond_Donors:                   1
##########                         Heavy_Atoms:                  24
##########                          Grid_Score:          -36.608101
##########                     Grid_vdw_energy:          -35.741737
##########                      Grid_es_energy:           -0.866362
##########           Internal_energy_repulsive:            8.397421

@<TRIPOS>MOLECULE
ZINC001090961577
 48 49 1 0 0
SMALL
USER_CHARGES


@<TRIPOS>ATOM
      1 C1        -11.8138    0.4751   55.2651 C.3     1  ZINC001090961577   -0.1400
      2 C2        -11.2863   -0.6879   54.4223 C.3     1  ZINC001090961577   -0.0900
      3 S3        -11.2327   -0.1945   52.6775 S.3     1  ZINC001090961577   -0.2700
      4 C4         -9.5464   -0.6399   52.1791 C.3     1  ZINC001090961577   -0.0700
      5 C5         -8.6543    0.6020   52.2313 C.3     1  ZINC001090961577   -0.1200
      6 C6         -7.4213    0.3703   51.3964 C.2     1  ZINC001090961577    0.5400
      7 O7         -7.2223   -0.7171   50.8975 O.2     1  ZINC001090961577   -0.5300
      8 N8         -6.5397    1.3714   51.2042 N.am    1  ZINC001090961577   -0.6200
      9 C9         -6.6567    2.7324   51.7480 C.3     1  ZINC001090961577    0.1100
     10 C10        -5.4088    3.5171   51.2912 C.3     1  ZINC001090961577   -0.1100
     11 H11        -5.6241    4.0946   50.3921 H       1  ZINC001090961577    0.0900
     12 C12        -4.9036    4.4298   52.4104 C.3     1  ZINC001090961577   -0.1400
     13 C13        -4.3828    2.3931   50.9890 C.3     1  ZINC001090961577    0.1500
     14 H14        -3.8891    2.0591   51.9015 H       1  ZINC001090961577    0.1200
     15 N15        -3.4007    2.8320   49.9944 N.pl3   1  ZINC001090961577   -0.6700
     16 C16        -2.6755    1.8993   49.2833 C.ar    1  ZINC001090961577    0.5900
     17 N17        -2.1724    2.2381   48.1032 N.ar    1  ZINC001090961577   -0.5700
     18 C18        -1.4727    1.3748   47.3917 C.ar    1  ZINC001090961577    0.2700
     19 C19        -1.2651    0.0853   47.9002 C.ar    1  ZINC001090961577   -0.3000
     20 C20        -0.4893   -0.9117   47.1401 C.2     1  ZINC001090961577    0.5300
     21 O21        -0.7886   -1.1664   45.9903 O.2     1  ZINC001090961577   -0.5100
     22 O22         0.5515   -1.5404   47.7204 O.3     1  ZINC001090961577   -0.3600
     23 C23         1.7585   -0.7610   47.9308 C.3     1  ZINC001090961577    0.0400
     24 C24        -1.8138   -0.2313   49.1505 C.ar    1  ZINC001090961577    0.2600
     25 N25        -2.4967    0.6910   49.8015 N.ar    1  ZINC001090961577   -0.5700
     26 C26        -5.2951    1.2813   50.4192 C.3     1  ZINC001090961577    0.0900
     27 H27       -11.8461    0.1786   56.3135 H       1  ZINC001090961577    0.0700
     28 H28       -11.1542    1.3351   55.1508 H       1  ZINC001090961577    0.0700
     29 H29       -12.8171    0.7398   54.9314 H       1  ZINC001090961577    0.0700
     30 H30       -10.2830   -0.9526   54.7560 H       1  ZINC001090961577    0.0800
     31 H31       -11.9461   -1.5479   54.5366 H       1  ZINC001090961577    0.0800
     32 H32        -9.1549   -1.3974   52.8581 H       1  ZINC001090961577    0.0900
     33 H33        -9.5602   -1.0349   51.1631 H       1  ZINC001090961577    0.0900
     34 H34        -9.2019    1.4595   51.8404 H       1  ZINC001090961577    0.1000
     35 H35        -8.3628    0.7968   53.2634 H       1  ZINC001090961577    0.1000
     36 H36        -7.5569    3.2099   51.3614 H       1  ZINC001090961577    0.0800
     37 H37        -6.6928    2.6946   52.8367 H       1  ZINC001090961577    0.0800
     38 H38        -4.6661    3.8301   53.2890 H       1  ZINC001090961577    0.0600
     39 H39        -4.0085    4.9541   52.0755 H       1  ZINC001090961577    0.0600
     40 H40        -5.6763    5.1556   52.6638 H       1  ZINC001090961577    0.0700
     41 H41        -3.2607    3.7788   49.8361 H       1  ZINC001090961577    0.4200
     42 H42        -1.0666    1.6576   46.4317 H       1  ZINC001090961577    0.1800
     43 H43         2.5162   -1.3854   48.4043 H       1  ZINC001090961577    0.1100
     44 H44         2.1310   -0.4021   46.9714 H       1  ZINC001090961577    0.0700
     45 H45         1.5341    0.0894   48.5746 H       1  ZINC001090961577    0.0700
     46 H46        -1.6761   -1.2142   49.5764 H       1  ZINC001090961577    0.1800
     47 H47        -4.8297    0.3044   50.5503 H       1  ZINC001090961577    0.0900
     48 H48        -5.5035    1.4648   49.3651 H       1  ZINC001090961577    0.0800
@<TRIPOS>BOND
     1     1     2    1
     2     1    27    1
     3     1    28    1
     4     1    29    1
     5     2     3    1
     6     2    30    1
     7     2    31    1
     8     3     4    1
     9     4     5    1
    10     4    32    1
    11     4    33    1
    12     5     6    1
    13     5    34    1
    14     5    35    1
    15     6     7    2
    16     6     8   am
    17     8    26    1
    18     8     9    1
    19     9    10    1
    20     9    36    1
    21     9    37    1
    22    10    11    1
    23    10    12    1
    24    10    13    1
    25    12    38    1
    26    12    39    1
    27    12    40    1
    28    13    14    1
    29    13    15    1
    30    13    26    1
    31    15    16    1
    32    15    41    1
    33    16    25   ar
    34    16    17   ar
    35    17    18   ar
    36    18    19   ar
    37    18    42    1
    38    19    20    1
    39    19    24   ar
    40    20    21    2
    41    20    22    1
    42    22    23    1
    43    23    43    1
    44    23    44    1
    45    23    45    1
    46    24    25   ar
    47    24    46    1
    48    26    47    1
    49    26    48    1
@<TRIPOS>SUBSTRUCTURE
     1 ZINC001090961577        1 TEMP              0 ****  ****    0 ROOT


##########                                Name:    ZINC000031496632
##########                DOCK_Rotatable_Bonds:                   8
##########                         Heavy_Atoms:                  30
##########                    Molecular_Weight:             423.539
##########                DOCK_Rotatable_Bonds:                   8
##########                       Formal_Charge:          -0.0100009
##########                     HBond_Acceptors:                   8
##########                        HBond_Donors:                   1
##########                         Heavy_Atoms:                  30
##########                          Grid_Score:          -36.604088
##########                     Grid_vdw_energy:          -35.750439
##########                      Grid_es_energy:           -0.853648
##########           Internal_energy_repulsive:           12.066825

@<TRIPOS>MOLECULE
ZINC000031496632
 55 58 1 0 0
SMALL
USER_CHARGES


@<TRIPOS>ATOM
      1 C1          0.0971    1.0321   44.7387 C.3     1  ZINC000031496632   -0.1600
      2 C2         -0.7987    0.7038   45.9347 C.3     1  ZINC000031496632    0.1600
      3 C3         -0.3456   -0.6149   46.5645 C.3     1  ZINC000031496632   -0.1600
      4 N4         -0.7017    1.7774   46.9268 N.pl3   1  ZINC000031496632   -0.3900
      5 N5          0.1643    2.8727   46.8528 N.2     1  ZINC000031496632   -0.2300
      6 C6          0.0026    3.6421   47.8910 C.2     1  ZINC000031496632    0.0800
      7 C7         -1.0322    3.0451   48.7281 C.ar    1  ZINC000031496632   -0.2100
      8 C8         -1.6273    3.3992   49.9443 C.ar    1  ZINC000031496632    0.0100
      9 C9         -2.6083    2.5643   50.4563 C.ar    1  ZINC000031496632    0.0500
     10 N10        -3.2365    2.8724   51.6701 N.am    1  ZINC000031496632   -0.6600
     11 C11        -4.5039    3.3305   51.6757 C.2     1  ZINC000031496632    0.5500
     12 O12        -5.1025    3.4765   50.6271 O.2     1  ZINC000031496632   -0.4900
     13 C13        -5.1647    3.6546   52.9525 C.ar    1  ZINC000031496632   -0.1300
     14 C14        -4.7064    4.7208   53.7304 C.ar    1  ZINC000031496632   -0.0600
     15 C15        -5.3284    5.0186   54.9232 C.ar    1  ZINC000031496632   -0.1400
     16 C16        -6.4079    4.2656   55.3577 C.ar    1  ZINC000031496632   -0.0600
     17 C17        -6.8726    3.2092   54.6019 C.ar    1  ZINC000031496632   -0.1500
     18 C18        -6.2628    2.8971   53.3925 C.ar    1  ZINC000031496632   -0.0600
     19 S19        -6.8540    1.5489   52.4242 S.3     1  ZINC000031496632    0.0900
     20 C20        -8.5782    1.3846   52.9632 C.3     1  ZINC000031496632   -0.2000
     21 C21        -9.2380    0.2641   52.2014 C.2     1  ZINC000031496632    0.5500
     22 O22        -8.5982   -0.7193   51.8941 O.2     1  ZINC000031496632   -0.5200
     23 N23       -10.5390    0.3551   51.8614 N.am    1  ZINC000031496632   -0.6200
     24 C24       -11.3065   -0.6627   51.1289 C.3     1  ZINC000031496632    0.1000
     25 C25       -12.7376   -0.1145   50.9469 C.3     1  ZINC000031496632   -0.1300
     26 C26       -12.5434    1.4181   51.0904 C.3     1  ZINC000031496632   -0.1300
     27 C27       -11.4299    1.4890   52.1682 C.3     1  ZINC000031496632    0.1000
     28 C28        -2.9640    1.4156   49.7515 C.ar    1  ZINC000031496632    0.1600
     29 N29        -2.3896    1.1047   48.6106 N.ar    1  ZINC000031496632   -0.4900
     30 C30        -1.4495    1.8704   48.0710 C.ar    1  ZINC000031496632    0.3000
     31 H31         0.0251    0.2333   44.0005 H       1  ZINC000031496632    0.0800
     32 H32        -0.2256    1.9716   44.2900 H       1  ZINC000031496632    0.0600
     33 H33         1.1303    1.1254   45.0732 H       1  ZINC000031496632    0.0700
     34 H34        -1.8319    0.6105   45.6000 H       1  ZINC000031496632    0.1100
     35 H35        -0.4176   -1.4137   45.8264 H       1  ZINC000031496632    0.0800
     36 H36         0.6876   -0.5217   46.8991 H       1  ZINC000031496632    0.0700
     37 H37        -0.9837   -0.8488   47.4166 H       1  ZINC000031496632    0.0600
     38 H38         0.5385    4.5572   48.0957 H       1  ZINC000031496632    0.2000
     39 H39        -1.3309    4.2957   50.4684 H       1  ZINC000031496632    0.1500
     40 H40        -2.7591    2.7561   52.5064 H       1  ZINC000031496632    0.4100
     41 H41        -3.8653    5.3107   53.3974 H       1  ZINC000031496632    0.1300
     42 H42        -4.9727    5.8433   55.5231 H       1  ZINC000031496632    0.1300
     43 H43        -6.8882    4.5072   56.2944 H       1  ZINC000031496632    0.1300
     44 H44        -7.7139    2.6271   54.9480 H       1  ZINC000031496632    0.1300
     45 H45        -8.6058    1.1639   54.0303 H       1  ZINC000031496632    0.1100
     46 H46        -9.1094    2.3167   52.7710 H       1  ZINC000031496632    0.1100
     47 H47       -10.8509   -0.8404   50.1547 H       1  ZINC000031496632    0.0700
     48 H48       -11.3345   -1.5895   51.7019 H       1  ZINC000031496632    0.0700
     49 H49       -13.1232   -0.3636   49.9583 H       1  ZINC000031496632    0.0900
     50 H50       -13.3979   -0.4943   51.7266 H       1  ZINC000031496632    0.0800
     51 H51       -12.2111    1.8595   50.1508 H       1  ZINC000031496632    0.0800
     52 H52       -13.4572    1.8963   51.4433 H       1  ZINC000031496632    0.0900
     53 H53       -11.8589    1.3824   53.1645 H       1  ZINC000031496632    0.0700
     54 H54       -10.8836    2.4287   52.0880 H       1  ZINC000031496632    0.0800
     55 H55        -3.7285    0.7663   50.1518 H       1  ZINC000031496632    0.1700
@<TRIPOS>BOND
     1     1     2    1
     2     1    31    1
     3     1    32    1
     4     1    33    1
     5     2     3    1
     6     2     4    1
     7     2    34    1
     8     3    35    1
     9     3    36    1
    10     3    37    1
    11     4    30    1
    12     4     5    1
    13     5     6    2
    14     6     7    1
    15     6    38    1
    16     7    30   ar
    17     7     8   ar
    18     8     9   ar
    19     8    39    1
    20     9    10    1
    21     9    28   ar
    22    10    11   am
    23    10    40    1
    24    11    12    2
    25    11    13    1
    26    13    18   ar
    27    13    14   ar
    28    14    15   ar
    29    14    41    1
    30    15    16   ar
    31    15    42    1
    32    16    17   ar
    33    16    43    1
    34    17    18   ar
    35    17    44    1
    36    18    19    1
    37    19    20    1
    38    20    21    1
    39    20    45    1
    40    20    46    1
    41    21    22    2
    42    21    23   am
    43    23    27    1
    44    23    24    1
    45    24    25    1
    46    24    47    1
    47    24    48    1
    48    25    26    1
    49    25    49    1
    50    25    50    1
    51    26    27    1
    52    26    51    1
    53    26    52    1
    54    27    53    1
    55    27    54    1
    56    28    29   ar
    57    28    55    1
    58    29    30   ar
@<TRIPOS>SUBSTRUCTURE
     1 ZINC000031496632        1 TEMP              0 ****  ****    0 ROOT


##########                                Name:    ZINC000770814339
##########                DOCK_Rotatable_Bonds:                  13
##########                         Heavy_Atoms:                  28
##########                    Molecular_Weight:             409.423
##########                DOCK_Rotatable_Bonds:                  13
##########                       Formal_Charge:          -0.0100008
##########                     HBond_Acceptors:                  12
##########                        HBond_Donors:                   4
##########                         Heavy_Atoms:                  28
##########                          Grid_Score:          -36.597103
##########                     Grid_vdw_energy:          -35.267765
##########                      Grid_es_energy:           -1.329338
##########           Internal_energy_repulsive:           12.130307

@<TRIPOS>MOLECULE
ZINC000770814339
 47 48 1 0 0
SMALL
USER_CHARGES


@<TRIPOS>ATOM
      1 C1          1.8766    0.8412   43.9402 C.3     1  ZINC000770814339   -0.1500
      2 C2          1.3810    0.7755   45.3862 C.3     1  ZINC000770814339    0.0600
      3 O3          1.2614    2.1211   45.9185 O.3     1  ZINC000770814339   -0.3500
      4 C4          0.1521    2.8062   45.5996 C.2     1  ZINC000770814339    0.4700
      5 O5          0.1509    4.0132   45.6540 O.2     1  ZINC000770814339   -0.4800
      6 C6         -1.0920    2.0699   45.1740 C.3     1  ZINC000770814339    0.0700
      7 O7         -1.5868    1.2975   46.2698 O.3     1  ZINC000770814339   -0.1800
      8 N8         -2.1833    2.0698   47.2959 N.2     1  ZINC000770814339   -0.2800
      9 C9         -2.0687    1.6996   48.5400 C.2     1  ZINC000770814339    0.1800
     10 C10        -2.6944    2.5069   49.6140 C.2     1  ZINC000770814339    0.5900
     11 O11        -2.0917    3.4434   50.0996 O.2     1  ZINC000770814339   -0.5100
     12 N12        -3.9320    2.2019   50.0519 N.am    1  ZINC000770814339   -0.7000
     13 C13        -4.5513    3.0008   51.1123 C.3     1  ZINC000770814339    0.1500
     14 C14        -5.9053    2.4295   51.4461 C.ar    1  ZINC000770814339   -0.0600
     15 C15        -6.1291    1.0701   51.3324 C.ar    1  ZINC000770814339   -0.1200
     16 C16        -7.3711    0.5461   51.6386 C.ar    1  ZINC000770814339   -0.0200
     17 C17        -8.3891    1.3814   52.0590 C.ar    1  ZINC000770814339   -0.6700
     18 S18        -9.9724    0.7135   52.4488 S.o2    1  ZINC000770814339    2.7000
     19 N19       -10.1486   -0.6768   51.5667 N.am    1  ZINC000770814339   -1.2500
     20 O20        -9.9167    0.3189   53.8128 O.2     1  ZINC000770814339   -0.9600
     21 O21       -10.9310    1.6331   51.9442 O.2     1  ZINC000770814339   -0.9600
     22 C22        -8.1650    2.7406   52.1741 C.ar    1  ZINC000770814339   -0.0200
     23 C23        -6.9218    3.2641   51.8715 C.ar    1  ZINC000770814339   -0.1200
     24 C24        -1.3152    0.4763   48.8799 C.2     1  ZINC000770814339    0.0600
     25 C25        -0.1241    0.4136   49.5708 C.2     1  ZINC000770814339   -0.2000
     26 C26         0.2363   -0.9293   49.6721 C.2     1  ZINC000770814339    0.0400
     27 N27        -0.6776   -1.6550   49.0789 N.2     1  ZINC000770814339   -0.2600
     28 N28        -1.6698   -0.8054   48.5743 N.pl3   1  ZINC000770814339   -0.4400
     29 H29         1.9664   -0.1690   43.5407 H       1  ZINC000770814339    0.0800
     30 H30         1.1666    1.4082   43.3382 H       1  ZINC000770814339    0.0700
     31 H31         2.8499    1.3310   43.9116 H       1  ZINC000770814339    0.0700
     32 H32         0.4076    0.2856   45.4149 H       1  ZINC000770814339    0.0700
     33 H33         2.0910    0.2084   45.9882 H       1  ZINC000770814339    0.0700
     34 H34        -1.8510    2.7881   44.8637 H       1  ZINC000770814339    0.1100
     35 H35        -0.8555    1.4084   44.3407 H       1  ZINC000770814339    0.1100
     36 H36        -4.4127    1.4534   49.6651 H       1  ZINC000770814339    0.4100
     37 H37        -3.9190    2.9791   51.9998 H       1  ZINC000770814339    0.0900
     38 H38        -4.6651    4.0302   50.7722 H       1  ZINC000770814339    0.0900
     39 H39        -5.3337    0.4175   51.0039 H       1  ZINC000770814339    0.1400
     40 H40        -7.5460   -0.5158   51.5490 H       1  ZINC000770814339    0.1500
     41 H41       -10.9627   -1.1988   51.6415 H       1  ZINC000770814339    0.4200
     42 H42        -9.4376   -0.9692   50.9750 H       1  ZINC000770814339    0.4200
     43 H43        -8.9602    3.3931   52.5029 H       1  ZINC000770814339    0.1500
     44 H44        -6.7467    4.3260   51.9614 H       1  ZINC000770814339    0.1400
     45 H45         0.4302    1.2535   49.9628 H       1  ZINC000770814339    0.1700
     46 H46         1.1228   -1.3081   50.1590 H       1  ZINC000770814339    0.1900
     47 H47        -2.4641   -1.0786   48.0892 H       1  ZINC000770814339    0.4500
@<TRIPOS>BOND
     1     1     2    1
     2     1    29    1
     3     1    30    1
     4     1    31    1
     5     2     3    1
     6     2    32    1
     7     2    33    1
     8     3     4    1
     9     4     5    2
    10     4     6    1
    11     6     7    1
    12     6    34    1
    13     6    35    1
    14     7     8    1
    15     8     9    2
    16     9    10    1
    17     9    24    1
    18    10    11    2
    19    10    12   am
    20    12    13    1
    21    12    36    1
    22    13    14    1
    23    13    37    1
    24    13    38    1
    25    14    23   ar
    26    14    15   ar
    27    15    16   ar
    28    15    39    1
    29    16    17   ar
    30    16    40    1
    31    17    18    1
    32    17    22   ar
    33    18    19   am
    34    18    20    2
    35    18    21    2
    36    19    41    1
    37    19    42    1
    38    22    23   ar
    39    22    43    1
    40    23    44    1
    41    24    28    1
    42    24    25    2
    43    25    26    1
    44    25    45    1
    45    26    27    2
    46    26    46    1
    47    27    28    1
    48    28    47    1
@<TRIPOS>SUBSTRUCTURE
     1 ZINC000770814339        1 TEMP              0 ****  ****    0 ROOT


##########                                Name:    ZINC001004075025
##########                DOCK_Rotatable_Bonds:                   8
##########                         Heavy_Atoms:                  25
##########                    Molecular_Weight:              349.43
##########                DOCK_Rotatable_Bonds:                   8
##########                       Formal_Charge:         -0.00999999
##########                     HBond_Acceptors:                   7
##########                        HBond_Donors:                   1
##########                         Heavy_Atoms:                  25
##########                          Grid_Score:          -36.494736
##########                     Grid_vdw_energy:          -35.266777
##########                      Grid_es_energy:           -1.227959
##########           Internal_energy_repulsive:            8.654963

@<TRIPOS>MOLECULE
ZINC001004075025
 52 54 1 0 0
SMALL
USER_CHARGES


@<TRIPOS>ATOM
      1 C1        -12.0013   -1.3589   55.7404 C.3     1  ZINC001004075025   -0.1500
      2 C2        -12.3061    0.0053   55.1181 C.3     1  ZINC001004075025   -0.1200
      3 C3        -11.5663    0.1344   53.7851 C.3     1  ZINC001004075025    0.0800
      4 H4        -11.8584   -0.6710   53.1113 H       1  ZINC001004075025    0.0700
      5 C5        -11.8614    1.5108   53.1374 C.3     1  ZINC001004075025   -0.1500
      6 C6        -10.6046    1.6913   52.2430 C.3     1  ZINC001004075025   -0.1400
      7 C7         -9.5027    1.0139   53.0858 C.3     1  ZINC001004075025    0.0700
      8 H8         -8.9443    1.7685   53.6397 H       1  ZINC001004075025    0.1100
      9 C9         -8.5697    0.2461   52.1853 C.2     1  ZINC001004075025    0.5300
     10 O10        -8.8289   -0.8978   51.8770 O.2     1  ZINC001004075025   -0.5200
     11 N11        -7.4469    0.8308   51.7224 N.am    1  ZINC001004075025   -0.6500
     12 C12        -6.3300    0.4367   50.8505 C.3     1  ZINC001004075025    0.1100
     13 C13        -5.4563    1.4499   51.6031 C.3     1  ZINC001004075025   -0.1400
     14 C14        -4.5047    2.2451   50.7070 C.3     1  ZINC001004075025    0.1300
     15 N15        -3.4932    1.3446   50.1482 N.am    1  ZINC001004075025   -0.7200
     16 C16        -2.8240    1.6928   49.0313 C.2     1  ZINC001004075025    0.6000
     17 O17        -3.0589    2.7552   48.4882 O.2     1  ZINC001004075025   -0.5300
     18 C18        -1.8076    0.7860   48.4682 C.2     1  ZINC001004075025   -0.2700
     19 C19        -1.0456    0.9506   47.3373 C.2     1  ZINC001004075025    0.0700
     20 C20        -1.0753    2.1227   46.3907 C.3     1  ZINC001004075025   -0.0300
     21 C21        -0.1838    3.2407   46.9351 C.3     1  ZINC001004075025   -0.1500
     22 C22        -0.5612    1.6832   45.0183 C.3     1  ZINC001004075025   -0.1500
     23 O23        -0.2735   -0.1344   47.2435 O.3     1  ZINC001004075025    0.1000
     24 N24        -0.4522   -0.9229   48.1391 N.2     1  ZINC001004075025   -0.3500
     25 C25        -1.3542   -0.5156   48.9822 C.2     1  ZINC001004075025    0.0200
     26 C26        -6.8029    2.1455   51.8618 C.3     1  ZINC001004075025    0.1100
     27 O27       -10.1460    0.1151   53.9991 O.3     1  ZINC001004075025   -0.3400
     28 H28       -12.5283   -1.4509   56.6901 H       1  ZINC001004075025    0.0600
     29 H29       -12.3300   -2.1481   55.0644 H       1  ZINC001004075025    0.0500
     30 H30       -10.9284   -1.4492   55.9100 H       1  ZINC001004075025    0.0600
     31 H31       -13.3791    0.0957   54.9484 H       1  ZINC001004075025    0.0800
     32 H32       -11.9774    0.7946   55.7941 H       1  ZINC001004075025    0.0700
     33 H33       -12.7698    1.4753   52.5360 H       1  ZINC001004075025    0.0900
     34 H34       -11.9225    2.2950   53.8920 H       1  ZINC001004075025    0.0900
     35 H35       -10.7315    1.1812   51.2882 H       1  ZINC001004075025    0.0800
     36 H36       -10.3836    2.7480   52.0931 H       1  ZINC001004075025    0.0900
     37 H37        -6.0141   -0.5971   50.9902 H       1  ZINC001004075025    0.0900
     38 H38        -6.4864    0.6924   49.8025 H       1  ZINC001004075025    0.0900
     39 H39        -4.9743    1.0490   52.4947 H       1  ZINC001004075025    0.1100
     40 H40        -5.0690    2.7055   49.8959 H       1  ZINC001004075025    0.0800
     41 H41        -4.0151    3.0212   51.2951 H       1  ZINC001004075025    0.0800
     42 H42        -3.3050    0.4976   50.5822 H       1  ZINC001004075025    0.4000
     43 H43        -2.0981    2.4873   46.2958 H       1  ZINC001004075025    0.1300
     44 H44         0.8389    2.8762   47.0300 H       1  ZINC001004075025    0.0600
     45 H45        -0.2054    4.0886   46.2504 H       1  ZINC001004075025    0.0700
     46 H46        -0.5502    3.5539   47.9128 H       1  ZINC001004075025    0.0600
     47 H47         0.4617    1.3187   45.1132 H       1  ZINC001004075025    0.0600
     48 H48        -1.1963    0.8867   44.6304 H       1  ZINC001004075025    0.0600
     49 H49        -0.5827    2.5310   44.3336 H       1  ZINC001004075025    0.0700
     50 H50        -1.7016   -1.0272   49.8677 H       1  ZINC001004075025    0.2000
     51 H51        -7.0821    2.8543   51.0823 H       1  ZINC001004075025    0.0900
     52 H52        -6.8892    2.5649   52.8642 H       1  ZINC001004075025    0.0800
@<TRIPOS>BOND
     1     1     2    1
     2     1    28    1
     3     1    29    1
     4     1    30    1
     5     2     3    1
     6     2    31    1
     7     2    32    1
     8     3     4    1
     9     3    27    1
    10     3     5    1
    11     5     6    1
    12     5    33    1
    13     5    34    1
    14     6     7    1
    15     6    35    1
    16     6    36    1
    17     7     8    1
    18     7     9    1
    19     7    27    1
    20     9    10    2
    21     9    11   am
    22    11    26    1
    23    11    12    1
    24    12    13    1
    25    12    37    1
    26    12    38    1
    27    13    14    1
    28    13    26    1
    29    13    39    1
    30    14    15    1
    31    14    40    1
    32    14    41    1
    33    15    16   am
    34    15    42    1
    35    16    17    2
    36    16    18    1
    37    18    25    1
    38    18    19    2
    39    19    20    1
    40    19    23    1
    41    20    21    1
    42    20    22    1
    43    20    43    1
    44    21    44    1
    45    21    45    1
    46    21    46    1
    47    22    47    1
    48    22    48    1
    49    22    49    1
    50    23    24    1
    51    24    25    2
    52    25    50    1
    53    26    51    1
    54    26    52    1
@<TRIPOS>SUBSTRUCTURE
     1 ZINC001004075025        1 TEMP              0 ****  ****    0 ROOT


##########                                Name:    ZINC001039825450
##########                DOCK_Rotatable_Bonds:                   8
##########                         Heavy_Atoms:                  24
##########                    Molecular_Weight:             337.339
##########                DOCK_Rotatable_Bonds:                   8
##########                       Formal_Charge:           0.0100001
##########                     HBond_Acceptors:                  11
##########                        HBond_Donors:                   4
##########                         Heavy_Atoms:                  24
##########                          Grid_Score:          -36.476948
##########                     Grid_vdw_energy:          -36.133125
##########                      Grid_es_energy:           -0.343822
##########           Internal_energy_repulsive:           11.180536

@<TRIPOS>MOLECULE
ZINC001039825450
 43 45 1 0 0
SMALL
USER_CHARGES


@<TRIPOS>ATOM
      1 O1         -2.9858    2.4454   47.9175 O.2     1  ZINC001039825450   -0.5100
      2 C2         -2.6863    1.7800   48.8863 C.2     1  ZINC001039825450    0.5000
      3 C3         -1.3457    1.0940   48.9440 C.3     1  ZINC001039825450    0.1300
      4 N4         -1.0815    0.4300   47.6651 N.pl3   1  ZINC001039825450   -0.1500
      5 N5         -0.6467   -0.7741   47.5433 N.2     1  ZINC001039825450   -0.2800
      6 C6         -0.5219   -1.0500   46.2648 C.2     1  ZINC001039825450   -0.0200
      7 C7         -0.9220    0.1021   45.5840 C.2     1  ZINC001039825450   -0.0200
      8 N8         -1.2581    0.9698   46.5113 N.2     1  ZINC001039825450   -0.2800
      9 N9         -3.5501    1.6587   49.9137 N.am    1  ZINC001039825450   -0.7300
     10 C10        -4.8533    2.3256   49.8576 C.3     1  ZINC001039825450    0.1000
     11 C11        -5.5850    2.1277   51.1866 C.3     1  ZINC001039825450    0.1100
     12 O12        -4.6615    2.1415   52.2771 O.3     1  ZINC001039825450   -0.5400
     13 C13        -6.6807    3.2098   51.3764 C.3     1  ZINC001039825450   -0.1600
     14 C14        -7.6773    2.4822   52.3131 C.3     1  ZINC001039825450    0.1000
     15 N15        -7.6694    1.0804   51.8569 N.am    1  ZINC001039825450   -0.6100
     16 C16        -8.6655    0.1905   52.0359 C.2     1  ZINC001039825450    0.5200
     17 O17        -8.5495   -0.9420   51.6174 O.2     1  ZINC001039825450   -0.5100
     18 C18        -9.9236    0.6025   52.7560 C.3     1  ZINC001039825450    0.1100
     19 H19        -9.6881    1.2732   53.5822 H       1  ZINC001039825450    0.1200
     20 C20       -10.6857   -0.6364   53.2654 C.3     1  ZINC001039825450    0.1100
     21 N21       -11.9776   -0.5672   52.5664 N.am    1  ZINC001039825450   -0.7400
     22 C22       -11.9942    0.5156   51.7782 C.2     1  ZINC001039825450    0.7100
     23 O23       -12.9462    0.8157   51.0839 O.2     1  ZINC001039825450   -0.5800
     24 N24       -10.8656    1.2413   51.8250 N.am    1  ZINC001039825450   -0.7200
     25 C25        -6.3949    0.8141   51.1738 C.3     1  ZINC001039825450    0.1200
     26 H26        -0.5676    1.8326   49.1374 H       1  ZINC001039825450    0.1400
     27 H27        -1.3506    0.3534   49.7437 H       1  ZINC001039825450    0.1400
     28 H28        -0.1798   -1.9773   45.8296 H       1  ZINC001039825450    0.2000
     29 H29        -0.9529    0.2481   44.5143 H       1  ZINC001039825450    0.2000
     30 H30        -3.3089    1.1297   50.6902 H       1  ZINC001039825450    0.4000
     31 H31        -4.7089    3.3908   49.6775 H       1  ZINC001039825450    0.0900
     32 H32        -5.4461    1.8975   49.0493 H       1  ZINC001039825450    0.0900
     33 H33        -4.1148    2.9381   52.3194 H       1  ZINC001039825450    0.3800
     34 H34        -6.2723    4.0994   51.8558 H       1  ZINC001039825450    0.0900
     35 H35        -7.1505    3.4609   50.4256 H       1  ZINC001039825450    0.0900
     36 H36        -7.3411    2.5463   53.3480 H       1  ZINC001039825450    0.0800
     37 H37        -8.6750    2.9089   52.2103 H       1  ZINC001039825450    0.0800
     38 H38       -10.1540   -1.5495   52.9974 H       1  ZINC001039825450    0.0900
     39 H39       -10.8307   -0.5795   54.3442 H       1  ZINC001039825450    0.1000
     40 H40       -12.7026   -1.2046   52.6613 H       1  ZINC001039825450    0.4400
     41 H41       -10.6992    2.0547   51.3232 H       1  ZINC001039825450    0.4400
     42 H42        -6.5831    0.5048   50.1457 H       1  ZINC001039825450    0.0900
     43 H43        -5.8463    0.0351   51.7030 H       1  ZINC001039825450    0.0900
@<TRIPOS>BOND
     1     1     2    2
     2     2     3    1
     3     2     9   am
     4     3     4    1
     5     3    26    1
     6     3    27    1
     7     4     8    1
     8     4     5    1
     9     5     6    2
    10     6     7    1
    11     6    28    1
    12     7     8    2
    13     7    29    1
    14     9    10    1
    15     9    30    1
    16    10    11    1
    17    10    31    1
    18    10    32    1
    19    11    25    1
    20    11    12    1
    21    11    13    1
    22    12    33    1
    23    13    14    1
    24    13    34    1
    25    13    35    1
    26    14    15    1
    27    14    36    1
    28    14    37    1
    29    15    16   am
    30    15    25    1
    31    16    17    2
    32    16    18    1
    33    18    19    1
    34    18    24    1
    35    18    20    1
    36    20    21    1
    37    20    38    1
    38    20    39    1
    39    21    22   am
    40    21    40    1
    41    22    23    2
    42    22    24   am
    43    24    41    1
    44    25    42    1
    45    25    43    1
@<TRIPOS>SUBSTRUCTURE
     1 ZINC001039825450        1 TEMP              0 ****  ****    0 ROOT


##########                                Name:    ZINC000981700465
##########                DOCK_Rotatable_Bonds:                   9
##########                         Heavy_Atoms:                  26
##########                    Molecular_Weight:             356.428
##########                DOCK_Rotatable_Bonds:                   9
##########                       Formal_Charge:               -0.01
##########                     HBond_Acceptors:                   8
##########                        HBond_Donors:                   3
##########                         Heavy_Atoms:                  26
##########                          Grid_Score:          -36.436432
##########                     Grid_vdw_energy:          -34.411179
##########                      Grid_es_energy:           -2.025254
##########           Internal_energy_repulsive:           13.507966

@<TRIPOS>MOLECULE
ZINC000981700465
 50 52 1 0 0
SMALL
USER_CHARGES


@<TRIPOS>ATOM
      1 C1        -10.8828    5.3919   51.0456 C.3     1  ZINC000981700465   -0.1500
      2 C2        -11.5378    4.0092   51.0370 C.3     1  ZINC000981700465   -0.1100
      3 C3        -10.6055    2.9991   51.7089 C.3     1  ZINC000981700465   -0.0500
      4 C4        -11.2746    1.6495   51.7522 C.2     1  ZINC000981700465    0.1400
      5 N5        -12.5589    1.4282   51.6945 N.2     1  ZINC000981700465   -0.2900
      6 N6        -12.7848    0.0490   51.7639 N.pl3   1  ZINC000981700465   -0.4600
      7 C7        -11.5989   -0.5721   51.8661 C.2     1  ZINC000981700465    0.1000
      8 C8        -10.6203    0.4014   51.8560 C.2     1  ZINC000981700465   -0.2900
      9 C9         -9.1654    0.1809   51.9469 C.2     1  ZINC000981700465    0.5900
     10 O10        -8.7213   -0.9510   51.9556 O.2     1  ZINC000981700465   -0.5300
     11 N11        -8.3277    1.2342   52.0205 N.am    1  ZINC000981700465   -0.7300
     12 C12        -6.8821    1.0151   52.1126 C.3     1  ZINC000981700465    0.1300
     13 C13        -6.1455    2.2043   51.4926 C.3     1  ZINC000981700465   -0.1100
     14 H14        -6.7214    3.1200   51.6259 H       1  ZINC000981700465    0.0900
     15 C15        -4.7360    2.3544   52.1170 C.3     1  ZINC000981700465   -0.1200
     16 C16        -3.9583    3.1275   51.0232 C.3     1  ZINC000981700465   -0.1300
     17 C17        -4.4804    2.5358   49.6978 C.3     1  ZINC000981700465    0.1400
     18 H18        -4.5598    3.3196   48.9445 H       1  ZINC000981700465    0.1000
     19 N19        -3.5789    1.4800   49.2299 N.am    1  ZINC000981700465   -0.7100
     20 C20        -2.4960    1.7965   48.4926 C.2     1  ZINC000981700465    0.5600
     21 O21        -2.2682    2.9573   48.2146 O.2     1  ZINC000981700465   -0.5200
     22 C22        -1.5833    0.7292   48.0210 C.ar    1  ZINC000981700465   -0.1400
     23 C23        -1.4639   -0.4813   48.7158 C.ar    1  ZINC000981700465   -0.0600
     24 C24        -0.5902   -1.4318   48.2132 C.ar    1  ZINC000981700465    0.0400
     25 N25         0.0953   -1.1811   47.1147 N.ar    1  ZINC000981700465   -0.2200
     26 N26        -0.0094   -0.0748   46.4739 N.ar    1  ZINC000981700465   -0.2400
     27 C27        -0.8160    0.8929   46.8644 C.ar    1  ZINC000981700465    0.0700
     28 C28        -5.8743    1.9502   49.9953 C.3     1  ZINC000981700465   -0.1200
     29 H29        -9.9393    5.3503   50.5013 H       1  ZINC000981700465    0.0600
     30 H30       -11.5470    6.1115   50.5670 H       1  ZINC000981700465    0.0600
     31 H31       -10.6955    5.6989   52.0745 H       1  ZINC000981700465    0.0500
     32 H32       -12.4813    4.0507   51.5813 H       1  ZINC000981700465    0.0600
     33 H33       -11.7251    3.7022   50.0080 H       1  ZINC000981700465    0.0600
     34 H34        -9.6780    2.9268   51.1408 H       1  ZINC000981700465    0.1000
     35 H35       -10.3849    3.3278   52.7244 H       1  ZINC000981700465    0.0800
     36 H36       -13.6519   -0.3851   51.7419 H       1  ZINC000981700465    0.4500
     37 H37       -11.4397   -1.6378   51.9383 H       1  ZINC000981700465    0.1800
     38 H38        -8.6818    2.1371   52.0123 H       1  ZINC000981700465    0.4000
     39 H39        -6.5956    0.9161   53.1596 H       1  ZINC000981700465    0.0700
     40 H40        -6.6176    0.1040   51.5759 H       1  ZINC000981700465    0.0700
     41 H41        -4.7821    2.9323   53.0399 H       1  ZINC000981700465    0.0700
     42 H42        -4.2859    1.3776   52.2937 H       1  ZINC000981700465    0.0700
     43 H43        -4.1800    4.1933   51.0788 H       1  ZINC000981700465    0.0800
     44 H44        -2.8867    2.9542   51.1225 H       1  ZINC000981700465    0.0700
     45 H45        -3.7612    0.5533   49.4508 H       1  ZINC000981700465    0.4000
     46 H46        -2.0340   -0.6673   49.6140 H       1  ZINC000981700465    0.1700
     47 H47        -0.4704   -2.3775   48.7208 H       1  ZINC000981700465    0.1800
     48 H48        -0.8771    1.8104   46.2980 H       1  ZINC000981700465    0.1700
     49 H49        -5.8803    0.8792   49.7930 H       1  ZINC000981700465    0.0800
     50 H50        -6.6271    2.4500   49.3858 H       1  ZINC000981700465    0.0800
@<TRIPOS>BOND
     1     1     2    1
     2     1    29    1
     3     1    30    1
     4     1    31    1
     5     2     3    1
     6     2    32    1
     7     2    33    1
     8     3     4    1
     9     3    34    1
    10     3    35    1
    11     4     8    1
    12     4     5    2
    13     5     6    1
    14     6     7    1
    15     6    36    1
    16     7     8    2
    17     7    37    1
    18     8     9    1
    19     9    10    2
    20     9    11   am
    21    11    12    1
    22    11    38    1
    23    12    13    1
    24    12    39    1
    25    12    40    1
    26    13    14    1
    27    13    28    1
    28    13    15    1
    29    15    16    1
    30    15    41    1
    31    15    42    1
    32    16    17    1
    33    16    43    1
    34    16    44    1
    35    17    18    1
    36    17    19    1
    37    17    28    1
    38    19    20   am
    39    19    45    1
    40    20    21    2
    41    20    22    1
    42    22    27   ar
    43    22    23   ar
    44    23    24   ar
    45    23    46    1
    46    24    25   ar
    47    24    47    1
    48    25    26   ar
    49    26    27   ar
    50    27    48    1
    51    28    49    1
    52    28    50    1
@<TRIPOS>SUBSTRUCTURE
     1 ZINC000981700465        1 TEMP              0 ****  ****    0 ROOT


##########                                Name:     oleObject70.pdb
##########                DOCK_Rotatable_Bonds:                   9
##########                         Heavy_Atoms:                  35
##########                    Molecular_Weight:             504.458
##########                DOCK_Rotatable_Bonds:                   9
##########                       Formal_Charge:          0.00010002
##########                     HBond_Acceptors:                   6
##########                        HBond_Donors:                   2
##########                         Heavy_Atoms:                  35
##########                          Grid_Score:          -36.430347
##########                     Grid_vdw_energy:          -36.472343
##########                      Grid_es_energy:            0.041995
##########           Internal_energy_repulsive:           15.658129

@<TRIPOS>MOLECULE
oleObject70.pdb
 62 65 1 0 0
SMALL
NO_CHARGES


@<TRIPOS>ATOM
      1 C         -12.8008   -0.1343   52.3299 C.ar    1  UNL        -0.0620
      2 C         -13.0454    1.0444   53.0488 C.ar    1  UNL        -0.0590
      3 C         -11.9794    1.8179   53.5478 C.ar    1  UNL        -0.0456
      4 C         -10.6424    1.4071   53.3127 C.ar    1  UNL        -0.0187
      5 C         -10.4135    0.2098   52.6000 C.ar    1  UNL        -0.0565
      6 C         -11.4828   -0.5541   52.1096 C.ar    1  UNL        -0.0619
      7 C          -9.4520    2.2266   53.8422 C.3     1  UNL         0.0909
      8 C          -9.0653    1.8999   55.2950 C.ar    1  UNL         0.0681
      9 C          -7.9980    2.5640   55.9514 C.ar    1  UNL        -0.0272
     10 C          -7.7025    2.2056   57.2803 C.ar    1  UNL        -0.0559
     11 C          -8.4700    1.2143   57.9083 C.ar    1  UNL        -0.0435
     12 C          -9.5122    0.6141   57.1868 C.ar    1  UNL         0.0272
     13 N          -9.8028    0.9501   55.9164 N.ar    1  UNL        -0.2587
     14 C          -7.1634    3.6411   55.2671 C.3     1  UNL        -0.0379
     15 N          -8.3171    2.2685   52.8938 N.am    1  UNL        -0.2987
     16 C          -8.1388    3.1710   51.8525 C.2     1  UNL         0.2437
     17 O          -8.9327    4.0646   51.6132 O.2     1  UNL        -0.2719
     18 C          -6.8871    2.9972   51.0258 C.ar    1  UNL         0.0371
     19 C          -5.9247    2.0047   51.3187 C.ar    1  UNL        -0.0494
     20 C          -4.7720    1.8698   50.5273 C.ar    1  UNL        -0.0570
     21 C          -4.5573    2.7211   49.4309 C.ar    1  UNL        -0.0341
     22 C          -5.5099    3.7089   49.1312 C.ar    1  UNL        -0.0570
     23 C          -6.6624    3.8457   49.9219 C.ar    1  UNL        -0.0494
     24 C          -3.3128    2.5676   48.5728 C.3     1  UNL         0.0208
     25 N          -2.6854    1.2549   48.7710 N.4     1  UNL        -0.3086
     26 C          -1.2173    1.2966   48.7920 C.3     1  UNL         0.0223
     27 C          -0.6550    1.8241   47.4789 C.ar    1  UNL        -0.0154
     28 C          -0.5237    3.2137   47.2935 C.ar    1  UNL        -0.0548
     29 C          -0.0037    3.7270   46.0941 C.ar    1  UNL        -0.0431
     30 C           0.3909    2.8517   45.0705 C.ar    1  UNL         0.0421
     31 C           0.2674    1.4646   45.2460 C.ar    1  UNL        -0.0245
     32 C          -0.2528    0.9496   46.4456 C.ar    1  UNL         0.0465
     33 CL         -0.3790   -0.7915   46.6207 Cl      1  UNL        -0.0839
     34 CL          1.0402    3.4902   43.5752 Cl      1  UNL        -0.0843
     35 C         -12.3067    3.0756   54.3469 C.3     1  UNL        -0.0394
     36 H         -13.6307   -0.7254   51.9537 H       1  UNL         0.0623
     37 H         -14.0720    1.3538   53.2239 H       1  UNL         0.0626
     38 H          -9.4021   -0.1439   52.4298 H       1  UNL         0.0627
     39 H         -11.2883   -1.4730   51.5641 H       1  UNL         0.0623
     40 H          -9.7961    3.2649   53.8645 H       1  UNL         0.0624
     41 H          -6.8898    2.6853   57.8182 H       1  UNL         0.0627
     42 H          -8.2625    0.9167   58.9318 H       1  UNL         0.0639
     43 H         -10.1324   -0.1599   57.6368 H       1  UNL         0.0840
     44 H          -6.5951    3.2258   54.4261 H       1  UNL         0.0280
     45 H          -6.4398    4.0901   55.9589 H       1  UNL         0.0280
     46 H          -7.7949    4.4530   54.8866 H       1  UNL         0.0280
     47 H          -7.6017    1.5645   53.0110 H       1  UNL         0.1508
     48 H          -6.0550    1.3286   52.1574 H       1  UNL         0.0631
     49 H          -4.0446    1.0984   50.7649 H       1  UNL         0.0626
     50 H          -5.3597    4.3708   48.2828 H       1  UNL         0.0626
     51 H          -7.3848    4.6169   49.6693 H       1  UNL         0.0631
     52 H          -2.5997    3.3625   48.8276 H       1  UNL         0.0479
     53 H          -3.5855    2.6928   47.5168 H       1  UNL         0.0479
     54 H          -2.9901    0.6248   48.0291 H       1  UNL         0.1229
     55 H          -0.8250    0.2878   48.9746 H       1  UNL         0.0480
     56 H          -0.8722    1.9328   49.6172 H       1  UNL         0.0480
     57 H          -0.8224    3.8982   48.0827 H       1  UNL         0.0627
     58 H           0.0943    4.8007   45.9605 H       1  UNL         0.0639
     59 H           0.5764    0.7887   44.4537 H       1  UNL         0.0654
     60 H         -13.3809    3.1555   54.5557 H       1  UNL         0.0280
     61 H         -12.0113    3.9787   53.7986 H       1  UNL         0.0280
     62 H         -11.7889    3.0776   55.3142 H       1  UNL         0.0280
@<TRIPOS>BOND
     1     1     2   ar
     2     1     6   ar
     3     1    36    1
     4     2     3   ar
     5     2    37    1
     6     3     4   ar
     7     3    35    1
     8     4     5   ar
     9     4     7    1
    10     5     6   ar
    11     5    38    1
    12     6    39    1
    13     7     8    1
    14     7    15    1
    15     7    40    1
    16     8     9   ar
    17     8    13   ar
    18     9    10   ar
    19     9    14    1
    20    10    11   ar
    21    10    41    1
    22    11    12   ar
    23    11    42    1
    24    12    13   ar
    25    12    43    1
    26    14    44    1
    27    14    45    1
    28    14    46    1
    29    15    16   am
    30    15    47    1
    31    16    17    2
    32    16    18    1
    33    18    19   ar
    34    18    23   ar
    35    19    20   ar
    36    19    48    1
    37    20    21   ar
    38    20    49    1
    39    21    22   ar
    40    21    24    1
    41    22    23   ar
    42    22    50    1
    43    23    51    1
    44    24    25    1
    45    24    52    1
    46    24    53    1
    47    25    26    1
    48    25    54    1
    49    26    27    1
    50    26    55    1
    51    26    56    1
    52    27    28   ar
    53    27    32   ar
    54    28    29   ar
    55    28    57    1
    56    29    30   ar
    57    29    58    1
    58    30    31   ar
    59    30    34    1
    60    31    32   ar
    61    31    59    1
    62    32    33    1
    63    35    60    1
    64    35    61    1
    65    35    62    1
@<TRIPOS>SUBSTRUCTURE
     1 UNL         1 TEMP              0 ****  ****    0 ROOT


##########                                Name:    ZINC000032503012
##########                DOCK_Rotatable_Bonds:                   8
##########                         Heavy_Atoms:                  27
##########                    Molecular_Weight:             390.503
##########                DOCK_Rotatable_Bonds:                   8
##########                       Formal_Charge:           0.0099995
##########                     HBond_Acceptors:                   7
##########                        HBond_Donors:                   2
##########                         Heavy_Atoms:                  27
##########                          Grid_Score:          -36.359795
##########                     Grid_vdw_energy:          -38.007786
##########                      Grid_es_energy:            1.647992
##########           Internal_energy_repulsive:           40.827633

@<TRIPOS>MOLECULE
ZINC000032503012
 53 54 1 0 0
SMALL
USER_CHARGES


@<TRIPOS>ATOM
      1 C1        -10.6538    0.1592   53.1544 C.3     1  ZINC000032503012   -0.1200
      2 C2         -9.2916    0.3314   52.5332 C.ar    1  ZINC000032503012   -0.0500
      3 C3         -8.6143   -0.7675   52.0384 C.ar    1  ZINC000032503012   -0.1600
      4 C4         -7.3641   -0.6129   51.4679 C.ar    1  ZINC000032503012   -0.0700
      5 C5         -6.7890    0.6407   51.3911 C.ar    1  ZINC000032503012   -0.1500
      6 C6         -7.4668    1.7451   51.8871 C.ar    1  ZINC000032503012    0.1300
      7 O7         -6.9032    2.9796   51.8124 O.3     1  ZINC000032503012   -0.2800
      8 C8         -6.2147    3.3063   50.6038 C.3     1  ZINC000032503012    0.0700
      9 H9         -6.6301    2.7252   49.7804 H       1  ZINC000032503012    0.1100
     10 C10        -6.3807    4.7986   50.3095 C.3     1  ZINC000032503012   -0.1800
     11 C11        -4.7505    2.9845   50.7571 C.2     1  ZINC000032503012    0.5200
     12 O12        -4.2040    3.1416   51.8283 O.2     1  ZINC000032503012   -0.4900
     13 N13        -4.0482    2.5220   49.7038 N.am    1  ZINC000032503012   -0.6700
     14 C14        -2.6887    2.2231   49.8460 C.ar    1  ZINC000032503012    0.1300
     15 C15        -1.8608    3.0747   50.5654 C.ar    1  ZINC000032503012   -0.0600
     16 C16        -0.5191    2.7769   50.7040 C.ar    1  ZINC000032503012   -0.1200
     17 C17        -0.0002    1.6326   50.1270 C.ar    1  ZINC000032503012   -0.0300
     18 C18        -0.8220    0.7826   49.4095 C.ar    1  ZINC000032503012   -0.6600
     19 S19        -0.1558   -0.6744   48.6760 S.o2    1  ZINC000032503012    2.7000
     20 O20         1.2541   -0.5947   48.8345 O.2     1  ZINC000032503012   -0.9600
     21 O21        -0.9325   -1.7600   49.1632 O.2     1  ZINC000032503012   -0.9500
     22 N22        -0.4495   -0.5823   47.0489 N.am    1  ZINC000032503012   -1.1100
     23 C23         0.0959    0.5308   46.2680 C.3     1  ZINC000032503012    0.1700
     24 C24         1.6162    0.5742   46.4346 C.3     1  ZINC000032503012   -0.1900
     25 C25        -0.2499    0.3349   44.7905 C.3     1  ZINC000032503012   -0.1500
     26 C26        -0.5091    1.8459   46.7634 C.3     1  ZINC000032503012   -0.1800
     27 C27        -2.1656    1.0712   49.2728 C.ar    1  ZINC000032503012   -0.0400
     28 C28        -8.7231    1.5881   52.4538 C.ar    1  ZINC000032503012   -0.2100
     29 H29       -11.4192    0.2572   52.3845 H       1  ZINC000032503012    0.0700
     30 H30       -10.7226   -0.8280   53.6115 H       1  ZINC000032503012    0.0700
     31 H31       -10.8049    0.9238   53.9163 H       1  ZINC000032503012    0.0700
     32 H32        -9.0621   -1.7485   52.0979 H       1  ZINC000032503012    0.1300
     33 H33        -6.8368   -1.4729   51.0824 H       1  ZINC000032503012    0.1300
     34 H34        -5.8125    0.7609   50.9458 H       1  ZINC000032503012    0.1300
     35 H35        -7.4398    5.0313   50.1986 H       1  ZINC000032503012    0.0800
     36 H36        -5.9653    5.3796   51.1328 H       1  ZINC000032503012    0.0800
     37 H37        -5.8555    5.0477   49.3875 H       1  ZINC000032503012    0.0800
     38 H38        -4.4853    2.3963   48.8469 H       1  ZINC000032503012    0.4100
     39 H39        -2.2654    3.9691   51.0158 H       1  ZINC000032503012    0.1400
     40 H40         0.1254    3.4388   51.2635 H       1  ZINC000032503012    0.1400
     41 H41         1.0493    1.4023   50.2366 H       1  ZINC000032503012    0.1500
     42 H42        -0.9825   -1.2654   46.6128 H       1  ZINC000032503012    0.4200
     43 H43         2.0300   -0.4176   46.2521 H       1  ZINC000032503012    0.0700
     44 H44         2.0398    1.2814   45.7216 H       1  ZINC000032503012    0.0800
     45 H45         1.8617    0.8893   47.4488 H       1  ZINC000032503012    0.0700
     46 H46        -1.3329    0.3041   44.6718 H       1  ZINC000032503012    0.0700
     47 H47         0.1558    1.1632   44.2096 H       1  ZINC000032503012    0.0700
     48 H48         0.1812   -0.6019   44.4377 H       1  ZINC000032503012    0.0600
     49 H49        -0.1038    2.0847   47.7467 H       1  ZINC000032503012    0.0900
     50 H50        -0.2622    2.6454   46.0647 H       1  ZINC000032503012    0.0700
     51 H51        -1.5922    1.7446   46.8316 H       1  ZINC000032503012    0.0600
     52 H52        -2.8069    0.4071   48.7124 H       1  ZINC000032503012    0.1400
     53 H53        -9.2526    2.4463   52.8406 H       1  ZINC000032503012    0.1300
@<TRIPOS>BOND
     1     1     2    1
     2     1    29    1
     3     1    30    1
     4     1    31    1
     5     2    28   ar
     6     2     3   ar
     7     3     4   ar
     8     3    32    1
     9     4     5   ar
    10     4    33    1
    11     5     6   ar
    12     5    34    1
    13     6     7    1
    14     6    28   ar
    15     7     8    1
    16     8     9    1
    17     8    10    1
    18     8    11    1
    19    10    35    1
    20    10    36    1
    21    10    37    1
    22    11    12    2
    23    11    13   am
    24    13    14    1
    25    13    38    1
    26    14    27   ar
    27    14    15   ar
    28    15    16   ar
    29    15    39    1
    30    16    17   ar
    31    16    40    1
    32    17    18   ar
    33    17    41    1
    34    18    19    1
    35    18    27   ar
    36    19    20    2
    37    19    21    2
    38    19    22   am
    39    22    23    1
    40    22    42    1
    41    23    24    1
    42    23    25    1
    43    23    26    1
    44    24    43    1
    45    24    44    1
    46    24    45    1
    47    25    46    1
    48    25    47    1
    49    25    48    1
    50    26    49    1
    51    26    50    1
    52    26    51    1
    53    27    52    1
    54    28    53    1
@<TRIPOS>SUBSTRUCTURE
     1 ZINC000032503012        1 TEMP              0 ****  ****    0 ROOT


##########                                Name:     oleObject14.pdb
##########                DOCK_Rotatable_Bonds:                   9
##########                         Heavy_Atoms:                  33
##########                    Molecular_Weight:             484.424
##########                DOCK_Rotatable_Bonds:                   9
##########                       Formal_Charge:         0.000299782
##########                     HBond_Acceptors:                   7
##########                        HBond_Donors:                   1
##########                         Heavy_Atoms:                  33
##########                          Grid_Score:          -36.342945
##########                     Grid_vdw_energy:          -36.013340
##########                      Grid_es_energy:           -0.329603
##########           Internal_energy_repulsive:           11.535846

@<TRIPOS>MOLECULE
oleObject14.pdb
 60 63 1 0 0
SMALL
NO_CHARGES


@<TRIPOS>ATOM
      1 C           0.2729    4.2164   46.2988 C.ar    1  UNL         0.0422
      2 C          -0.1591    4.5582   47.5899 C.ar    1  UNL        -0.0408
      3 C          -0.8431    3.6158   48.3759 C.ar    1  UNL        -0.0288
      4 C          -1.0990    2.3225   47.8719 C.ar    1  UNL         0.0937
      5 C          -0.6612    1.9877   46.5741 C.ar    1  UNL         0.0723
      6 C           0.0225    2.9322   45.7905 C.ar    1  UNL        -0.0221
      7 CL         -0.9578    0.3923   45.9088 Cl      1  UNL        -0.0814
      8 O          -1.7681    1.3669   48.6123 O.3     1  UNL        -0.3432
      9 C          -2.5660    1.6716   49.7698 C.3     1  UNL         0.0661
     10 C          -3.9673    2.0902   49.2786 C.3     1  UNL         0.0222
     11 N          -4.8494    2.5801   50.3611 N.4     1  UNL        -0.3010
     12 C          -6.2189    2.9319   49.9180 C.3     1  UNL        -0.0010
     13 C          -7.0563    3.5417   51.0643 C.3     1  UNL        -0.0289
     14 C          -7.0957    2.6429   52.3238 C.3     1  UNL         0.0382
     15 C          -5.6596    2.2102   52.7131 C.3     1  UNL        -0.0289
     16 C          -4.8392    1.6630   51.5214 C.3     1  UNL        -0.0010
     17 C          -8.0439    1.4331   52.1345 C.2     1  UNL         0.2156
     18 O          -7.7176    0.4549   51.4872 O.2     1  UNL        -0.2774
     19 N          -9.2883    1.4273   52.7516 N.am    1  UNL        -0.3025
     20 C         -10.3194    0.3744   52.6895 C.3     1  UNL         0.0900
     21 C         -10.9635    0.0910   54.0453 C.ar    1  UNL        -0.0217
     22 C         -10.3411    0.4894   55.2456 C.ar    1  UNL        -0.0568
     23 C         -10.9418    0.2109   56.4842 C.ar    1  UNL        -0.0619
     24 C         -12.1712   -0.4649   56.5331 C.ar    1  UNL        -0.0622
     25 C         -12.8004   -0.8594   55.3421 C.ar    1  UNL        -0.0619
     26 C         -12.1995   -0.5807   54.1037 C.ar    1  UNL        -0.0568
     27 C         -11.3832    0.6881   51.6417 C.ar    1  UNL         0.0652
     28 C         -11.9527    1.9730   51.5251 C.ar    1  UNL        -0.0383
     29 C         -12.9341    2.1975   50.5464 C.ar    1  UNL        -0.0588
     30 C         -13.3132    1.1292   49.7189 C.ar    1  UNL        -0.0438
     31 C         -12.6960   -0.1199   49.9042 C.ar    1  UNL         0.0272
     32 N         -11.7535   -0.3373   50.8437 N.ar    1  UNL        -0.2590
     33 CL          1.1249    5.3930   45.3220 Cl      1  UNL        -0.0843
     34 H           0.0353    5.5523   47.9827 H       1  UNL         0.0639
     35 H          -1.1675    3.9016   49.3713 H       1  UNL         0.0652
     36 H           0.3572    2.6686   44.7912 H       1  UNL         0.0655
     37 H          -2.1043    2.4878   50.3385 H       1  UNL         0.0586
     38 H          -2.6545    0.7873   50.4139 H       1  UNL         0.0586
     39 H          -4.4296    1.2133   48.8067 H       1  UNL         0.0455
     40 H          -3.8603    2.8622   48.5053 H       1  UNL         0.0455
     41 H          -6.7256    2.0361   49.5356 H       1  UNL         0.0431
     42 H          -6.1840    3.6651   49.1040 H       1  UNL         0.0431
     43 H          -8.0736    3.7441   50.7094 H       1  UNL         0.0288
     44 H          -6.6209    4.5122   51.3353 H       1  UNL         0.0288
     45 H          -7.4603    3.2567   53.1518 H       1  UNL         0.0402
     46 H          -5.6966    1.4621   53.5152 H       1  UNL         0.0288
     47 H          -5.1304    3.0808   53.1220 H       1  UNL         0.0288
     48 H          -5.2392    0.6861   51.2219 H       1  UNL         0.0431
     49 H          -3.8068    1.5018   51.8576 H       1  UNL         0.0431
     50 H          -9.4623    2.1941   53.3887 H       1  UNL         0.1504
     51 H          -9.8153   -0.5411   52.3544 H       1  UNL         0.0624
     52 H          -9.3867    1.0071   55.2222 H       1  UNL         0.0626
     53 H         -10.4539    0.5176   57.4050 H       1  UNL         0.0623
     54 H         -12.6360   -0.6799   57.4912 H       1  UNL         0.0623
     55 H         -13.7536   -1.3793   55.3781 H       1  UNL         0.0623
     56 H         -12.6957   -0.8885   53.1874 H       1  UNL         0.0626
     57 H         -11.6418    2.7816   52.1797 H       1  UNL         0.0643
     58 H         -13.3903    3.1767   50.4326 H       1  UNL         0.0624
     59 H         -14.0688    1.2641   48.9507 H       1  UNL         0.0639
     60 H         -12.9646   -0.9726   49.2817 H       1  UNL         0.0840
@<TRIPOS>BOND
     1     1     2   ar
     2     1     6   ar
     3     1    33    1
     4     2     3   ar
     5     2    34    1
     6     3     4   ar
     7     3    35    1
     8     4     5   ar
     9     4     8    1
    10     5     6   ar
    11     5     7    1
    12     6    36    1
    13     8     9    1
    14     9    10    1
    15     9    37    1
    16     9    38    1
    17    10    11    1
    18    10    39    1
    19    10    40    1
    20    11    12    1
    21    11    16    1
    22    12    13    1
    23    12    41    1
    24    12    42    1
    25    13    14    1
    26    13    43    1
    27    13    44    1
    28    14    15    1
    29    14    17    1
    30    14    45    1
    31    15    16    1
    32    15    46    1
    33    15    47    1
    34    16    48    1
    35    16    49    1
    36    17    18    2
    37    17    19   am
    38    19    20    1
    39    19    50    1
    40    20    21    1
    41    20    27    1
    42    20    51    1
    43    21    22   ar
    44    21    26   ar
    45    22    23   ar
    46    22    52    1
    47    23    24   ar
    48    23    53    1
    49    24    25   ar
    50    24    54    1
    51    25    26   ar
    52    25    55    1
    53    26    56    1
    54    27    28   ar
    55    27    32   ar
    56    28    29   ar
    57    28    57    1
    58    29    30   ar
    59    29    58    1
    60    30    31   ar
    61    30    59    1
    62    31    32   ar
    63    31    60    1
@<TRIPOS>SUBSTRUCTURE
     1 UNL         1 TEMP              0 ****  ****    0 ROOT


##########                                Name:    ZINC000505965769
##########                DOCK_Rotatable_Bonds:                   9
##########                         Heavy_Atoms:                  29
##########                    Molecular_Weight:              419.88
##########                DOCK_Rotatable_Bonds:                   9
##########                       Formal_Charge:               -0.02
##########                     HBond_Acceptors:                   7
##########                        HBond_Donors:                   1
##########                         Heavy_Atoms:                  29
##########                          Grid_Score:          -36.287830
##########                     Grid_vdw_energy:          -35.793644
##########                      Grid_es_energy:           -0.494186
##########           Internal_energy_repulsive:           17.806255

@<TRIPOS>MOLECULE
ZINC000505965769
 52 54 1 0 0
SMALL
USER_CHARGES


@<TRIPOS>ATOM
      1 C1          1.3475    0.0736   43.5428 C.3     1  ZINC000505965769    0.0200
      2 O2          0.0771   -0.3423   44.0482 O.3     1  ZINC000505965769   -0.3100
      3 C3         -0.3126    0.1786   45.2387 C.ar    1  ZINC000505965769    0.1800
      4 C4         -0.5074    1.5501   45.3643 C.ar    1  ZINC000505965769   -0.2200
      5 C5         -0.9000    2.0834   46.5587 C.ar    1  ZINC000505965769   -0.0200
      6 C6         -1.1083    1.2490   47.6640 C.ar    1  ZINC000505965769   -0.2100
      7 C7         -1.5307    1.8196   48.9485 C.2     1  ZINC000505965769    0.3900
      8 O8         -0.7115    2.0269   49.8188 O.2     1  ZINC000505965769   -0.4400
      9 C9         -2.9821    2.1480   49.1862 C.3     1  ZINC000505965769   -0.1500
     10 C10        -3.1766    2.5743   50.6427 C.3     1  ZINC000505965769   -0.1300
     11 C11        -4.6071    2.9981   50.8554 C.2     1  ZINC000505965769    0.5200
     12 O12        -5.2636    3.4072   49.9213 O.2     1  ZINC000505965769   -0.5300
     13 N13        -5.1569    2.9222   52.0836 N.am    1  ZINC000505965769   -0.7200
     14 C14        -6.5469    3.3359   52.2906 C.3     1  ZINC000505965769    0.1900
     15 H15        -6.8389    4.0343   51.5064 H       1  ZINC000505965769    0.1100
     16 C16        -7.4433    2.1253   52.2444 C.ar    1  ZINC000505965769   -0.1000
     17 C17        -6.9679    0.9330   51.7313 C.ar    1  ZINC000505965769   -0.0900
     18 C18        -7.7890   -0.1778   51.6885 C.ar    1  ZINC000505965769   -0.1500
     19 C19        -9.0882   -0.0962   52.1601 C.ar    1  ZINC000505965769    0.1000
     20 F20        -9.8918   -1.1815   52.1191 F       1  ZINC000505965769   -0.1400
     21 C21        -9.5632    1.0985   52.6743 C.ar    1  ZINC000505965769   -0.1500
     22 C22        -8.7387    2.2066   52.7206 C.ar    1  ZINC000505965769   -0.0600
     23 C23        -6.6788    4.0163   53.6546 C.3     1  ZINC000505965769    0.0800
     24 H24        -7.7160    4.2967   53.8382 H       1  ZINC000505965769    0.0700
     25 C25        -6.1691    3.0764   54.7761 C.3     1  ZINC000505965769   -0.1500
     26 C26        -5.7834    4.1071   55.8720 C.3     1  ZINC000505965769   -0.1600
     27 C27        -5.2773    5.3014   55.0348 C.3     1  ZINC000505965769    0.0500
     28 O28        -5.8306    5.1740   53.7183 O.3     1  ZINC000505965769   -0.3700
     29 C29        -0.9122   -0.1338   47.5385 C.ar    1  ZINC000505965769    0.0500
     30 Cl30       -1.1674   -1.1776   48.9019 Cl      1  ZINC000505965769   -0.0200
     31 C31        -0.5210   -0.6612   46.3270 C.ar    1  ZINC000505965769   -0.1600
     32 H32         2.1282   -0.2009   44.2521 H       1  ZINC000505965769    0.0600
     33 H33         1.5363   -0.4159   42.5873 H       1  ZINC000505965769    0.1100
     34 H34         1.3468    1.1546   43.4034 H       1  ZINC000505965769    0.0600
     35 H35        -0.3472    2.1960   44.5137 H       1  ZINC000505965769    0.1400
     36 H36        -1.0495    3.1490   46.6510 H       1  ZINC000505965769    0.1500
     37 H37        -3.2834    2.9616   48.5263 H       1  ZINC000505965769    0.1100
     38 H38        -3.5921    1.2684   48.9805 H       1  ZINC000505965769    0.1100
     39 H39        -2.9441    1.7368   51.3005 H       1  ZINC000505965769    0.1000
     40 H40        -2.5130    3.4089   50.8688 H       1  ZINC000505965769    0.1000
     41 H41        -4.6321    2.5938   52.8304 H       1  ZINC000505965769    0.4000
     42 H42        -5.9545    0.8696   51.3634 H       1  ZINC000505965769    0.1300
     43 H43        -7.4176   -1.1090   51.2869 H       1  ZINC000505965769    0.1400
     44 H44       -10.5765    1.1634   53.0422 H       1  ZINC000505965769    0.1400
     45 H45        -9.1088    3.1385   53.1218 H       1  ZINC000505965769    0.1400
     46 H46        -6.9612    2.4126   55.1224 H       1  ZINC000505965769    0.0700
     47 H47        -5.2988    2.5084   54.4472 H       1  ZINC000505965769    0.1000
     48 H48        -6.6548    4.3892   56.4630 H       1  ZINC000505965769    0.0700
     49 H49        -4.9905    3.7167   56.5098 H       1  ZINC000505965769    0.0800
     50 H50        -5.6103    6.2364   55.4855 H       1  ZINC000505965769    0.0700
     51 H51        -4.1887    5.2817   54.9830 H       1  ZINC000505965769    0.0700
     52 H52        -0.3690   -1.7255   46.2249 H       1  ZINC000505965769    0.1500
@<TRIPOS>BOND
     1     1     2    1
     2     1    32    1
     3     1    33    1
     4     1    34    1
     5     2     3    1
     6     3    31   ar
     7     3     4   ar
     8     4     5   ar
     9     4    35    1
    10     5     6   ar
    11     5    36    1
    12     6     7    1
    13     6    29   ar
    14     7     8    2
    15     7     9    1
    16     9    10    1
    17     9    37    1
    18     9    38    1
    19    10    11    1
    20    10    39    1
    21    10    40    1
    22    11    12    2
    23    11    13   am
    24    13    14    1
    25    13    41    1
    26    14    15    1
    27    14    16    1
    28    14    23    1
    29    16    22   ar
    30    16    17   ar
    31    17    18   ar
    32    17    42    1
    33    18    19   ar
    34    18    43    1
    35    19    20    1
    36    19    21   ar
    37    21    22   ar
    38    21    44    1
    39    22    45    1
    40    23    24    1
    41    23    28    1
    42    23    25    1
    43    25    26    1
    44    25    46    1
    45    25    47    1
    46    26    27    1
    47    26    48    1
    48    26    49    1
    49    27    28    1
    50    27    50    1
    51    27    51    1
    52    29    30    1
    53    29    31   ar
    54    31    52    1
@<TRIPOS>SUBSTRUCTURE
     1 ZINC000505965769        1 TEMP              0 ****  ****    0 ROOT


##########                                Name:    ZINC000474251633
##########                DOCK_Rotatable_Bonds:                   8
##########                         Heavy_Atoms:                  28
##########                    Molecular_Weight:             416.931
##########                DOCK_Rotatable_Bonds:                   8
##########                       Formal_Charge:          0.00999953
##########                     HBond_Acceptors:                   8
##########                        HBond_Donors:                   2
##########                         Heavy_Atoms:                  28
##########                          Grid_Score:          -36.053848
##########                     Grid_vdw_energy:          -35.861660
##########                      Grid_es_energy:           -0.192189
##########           Internal_energy_repulsive:           11.248034

@<TRIPOS>MOLECULE
ZINC000474251633
 49 52 1 0 0
SMALL
USER_CHARGES


@<TRIPOS>ATOM
      1 O1         -6.2722    1.5654   49.9149 O.2     1  ZINC000474251633   -0.5300
      2 C2         -5.7075    1.4063   50.9764 C.2     1  ZINC000474251633    0.5100
      3 C3         -4.6480    2.3820   51.4199 C.3     1  ZINC000474251633    0.1000
      4 N4         -3.3252    1.8597   51.0681 N.am    1  ZINC000474251633   -0.7100
      5 C5         -2.8822    1.9467   49.7982 C.2     1  ZINC000474251633    0.5900
      6 O6         -3.5803    2.4603   48.9442 O.2     1  ZINC000474251633   -0.5000
      7 C7         -1.5572    1.4216   49.4454 C.2     1  ZINC000474251633   -0.2300
      8 C8         -0.4060    2.0814   49.6198 C.2     1  ZINC000474251633    0.0400
      9 Cl9        -0.3470    3.6766   50.3024 Cl      1  ZINC000474251633   -0.0100
     10 C10         0.7521    1.3963   49.2138 C.ar    1  ZINC000474251633   -0.0900
     11 C11         2.1004    1.8222   49.2687 C.ar    1  ZINC000474251633   -0.0600
     12 C12         3.0983    1.0127   48.8243 C.ar    1  ZINC000474251633   -0.1200
     13 C13         2.8140   -0.2458   48.3090 C.ar    1  ZINC000474251633   -0.0800
     14 C14         1.5144   -0.6875   48.2422 C.ar    1  ZINC000474251633   -0.0900
     15 C15         0.4708    0.1268   48.6935 C.ar    1  ZINC000474251633   -0.1200
     16 S16        -1.2649   -0.1600   48.7439 S.3     1  ZINC000474251633    0.1700
     17 N17        -6.0314    0.3602   51.7621 N.am    1  ZINC000474251633   -0.7200
     18 C18        -7.0614   -0.5882   51.3309 C.3     1  ZINC000474251633    0.2100
     19 C19        -8.4030   -0.1457   51.8558 C.2     1  ZINC000474251633    0.0500
     20 N20        -9.3901   -0.9329   52.1989 N.2     1  ZINC000474251633   -0.2700
     21 N21       -10.4558   -0.1343   52.6337 N.pl3   1  ZINC000474251633   -0.3600
     22 C22       -11.7561   -0.6155   53.1074 C.3     1  ZINC000474251633    0.1500
     23 C23       -11.7618   -0.6920   54.6481 C.3     1  ZINC000474251633   -0.1400
     24 C24       -12.3994    0.6478   55.0926 C.3     1  ZINC000474251633   -0.1300
     25 C25       -13.5009    0.8722   54.0271 C.3     1  ZINC000474251633   -0.1200
     26 C26       -12.8618    0.3791   52.7126 C.3     1  ZINC000474251633   -0.1400
     27 C27       -10.0732    1.1563   52.5393 C.2     1  ZINC000474251633    0.0600
     28 C28        -8.8057    1.1772   52.0660 C.2     1  ZINC000474251633   -0.2600
     29 H29        -4.8046    3.3393   50.9227 H       1  ZINC000474251633    0.1100
     30 H30        -4.7091    2.5190   52.4995 H       1  ZINC000474251633    0.1100
     31 H31        -2.7682    1.4513   51.7492 H       1  ZINC000474251633    0.4100
     32 H32         2.3385    2.7977   49.6661 H       1  ZINC000474251633    0.1300
     33 H33         4.1226    1.3516   48.8722 H       1  ZINC000474251633    0.1400
     34 H34         3.6166   -0.8784   47.9596 H       1  ZINC000474251633    0.1400
     35 H35         1.2984   -1.6664   47.8401 H       1  ZINC000474251633    0.1400
     36 H36        -5.5825    0.2353   52.6128 H       1  ZINC000474251633    0.4100
     37 H37        -7.0907   -0.6226   50.2419 H       1  ZINC000474251633    0.0900
     38 H38        -6.8282   -1.5795   51.7197 H       1  ZINC000474251633    0.0900
     39 H39       -11.9678   -1.5969   52.6832 H       1  ZINC000474251633    0.1100
     40 H40       -12.3671   -1.5333   54.9860 H       1  ZINC000474251633    0.0900
     41 H41       -10.7442   -0.7754   55.0297 H       1  ZINC000474251633    0.0800
     42 H42       -12.8365    0.5563   56.0869 H       1  ZINC000474251633    0.0800
     43 H43       -11.6652    1.4529   55.0648 H       1  ZINC000474251633    0.0700
     44 H44       -14.3870    0.2837   54.2647 H       1  ZINC000474251633    0.0700
     45 H45       -13.7525    1.9303   53.9556 H       1  ZINC000474251633    0.0700
     46 H46       -12.4310    1.2197   52.1685 H       1  ZINC000474251633    0.0700
     47 H47       -13.6105   -0.1199   52.0975 H       1  ZINC000474251633    0.0800
     48 H48       -10.6702    2.0181   52.7991 H       1  ZINC000474251633    0.1700
     49 H49        -8.2121    2.0596   51.8779 H       1  ZINC000474251633    0.1500
@<TRIPOS>BOND
     1     1     2    2
     2     2     3    1
     3     2    17   am
     4     3     4    1
     5     3    29    1
     6     3    30    1
     7     4     5   am
     8     4    31    1
     9     5     6    2
    10     5     7    1
    11     7    16    1
    12     7     8    2
    13     8     9    1
    14     8    10    1
    15    10    15   ar
    16    10    11   ar
    17    11    12   ar
    18    11    32    1
    19    12    13   ar
    20    12    33    1
    21    13    14   ar
    22    13    34    1
    23    14    15   ar
    24    14    35    1
    25    15    16    1
    26    17    18    1
    27    17    36    1
    28    18    19    1
    29    18    37    1
    30    18    38    1
    31    19    28    1
    32    19    20    2
    33    20    21    1
    34    21    22    1
    35    21    27    1
    36    22    26    1
    37    22    23    1
    38    22    39    1
    39    23    24    1
    40    23    40    1
    41    23    41    1
    42    24    25    1
    43    24    42    1
    44    24    43    1
    45    25    26    1
    46    25    44    1
    47    25    45    1
    48    26    46    1
    49    26    47    1
    50    27    28    2
    51    27    48    1
    52    28    49    1
@<TRIPOS>SUBSTRUCTURE
     1 ZINC000474251633        1 TEMP              0 ****  ****    0 ROOT


##########                                Name:    ZINC001109848453
##########                DOCK_Rotatable_Bonds:                   8
##########                         Heavy_Atoms:                  24
##########                    Molecular_Weight:             328.337
##########                DOCK_Rotatable_Bonds:                   8
##########                       Formal_Charge:          0.00999966
##########                     HBond_Acceptors:                  11
##########                        HBond_Donors:                   2
##########                         Heavy_Atoms:                  24
##########                          Grid_Score:          -36.042389
##########                     Grid_vdw_energy:          -36.231251
##########                      Grid_es_energy:            0.188862
##########           Internal_energy_repulsive:           11.049931

@<TRIPOS>MOLECULE
ZINC001109848453
 40 43 1 0 0
SMALL
USER_CHARGES


@<TRIPOS>ATOM
      1 O1         -7.0702    2.2858   51.1776 O.2     1  ZINC001109848453   -0.5000
      2 C2         -6.3394    1.3245   51.0650 C.2     1  ZINC001109848453    0.5000
      3 C3         -6.8859   -0.0652   51.2680 C.3     1  ZINC001109848453    0.1100
      4 N4         -8.1494    0.0098   52.0057 N.pl3   1  ZINC001109848453   -0.3700
      5 C5         -8.4850    0.9177   52.9385 C.2     1  ZINC001109848453    0.2600
      6 N6         -9.6942    0.6430   53.3559 N.2     1  ZINC001109848453   -0.5400
      7 C7        -10.1608   -0.4283   52.7156 C.2     1  ZINC001109848453    0.2000
      8 N8         -9.2529   -0.8490   51.8745 N.2     1  ZINC001109848453   -0.2900
      9 N9         -5.0399    1.4985   50.7528 N.am    1  ZINC001109848453   -0.7300
     10 C10        -4.5087    2.8495   50.5555 C.3     1  ZINC001109848453    0.1700
     11 H11        -5.3242    3.5275   50.3037 H       1  ZINC001109848453    0.1000
     12 C12        -3.4876    2.8346   49.4161 C.3     1  ZINC001109848453    0.1200
     13 N13        -2.9159    1.4916   49.2904 N.pl3   1  ZINC001109848453   -0.6800
     14 C14        -2.0791    1.1918   48.2281 C.2     1  ZINC001109848453    0.4900
     15 N15        -1.9849    2.0153   47.2022 N.2     1  ZINC001109848453   -0.5300
     16 C16        -1.1825    1.7415   46.1704 C.2     1  ZINC001109848453    0.1400
     17 C17        -0.4395    0.6160   46.1360 C.2     1  ZINC001109848453   -0.0500
     18 N18        -0.4983   -0.2731   47.1729 N.pl3   1  ZINC001109848453   -0.1800
     19 N19         0.0719   -1.3983   47.4222 N.2     1  ZINC001109848453   -0.1000
     20 N20        -0.3370   -1.8389   48.5614 N.2     1  ZINC001109848453   -0.0400
     21 N21        -1.1813   -1.0109   49.0776 N.2     1  ZINC001109848453   -0.2600
     22 C22        -1.3131    0.0024   48.2364 C.2     1  ZINC001109848453    0.1000
     23 C23        -3.8300    3.3237   51.8422 C.3     1  ZINC001109848453   -0.1800
     24 C24        -3.6963    4.8329   52.0555 C.3     1  ZINC001109848453   -0.1700
     25 C25        -4.7025    4.0296   52.8821 C.3     1  ZINC001109848453   -0.1700
     26 H26        -7.0584   -0.5331   50.2987 H       1  ZINC001109848453    0.1300
     27 H27        -6.1687   -0.6585   51.8353 H       1  ZINC001109848453    0.1200
     28 H28        -7.8647    1.7315   53.2837 H       1  ZINC001109848453    0.2200
     29 H29       -11.1331   -0.8743   52.8645 H       1  ZINC001109848453    0.2200
     30 H30        -4.4564    0.7294   50.6589 H       1  ZINC001109848453    0.4000
     31 H31        -3.9801    3.1086   48.4832 H       1  ZINC001109848453    0.1000
     32 H32        -2.6930    3.5491   49.6310 H       1  ZINC001109848453    0.0900
     33 H33        -3.1234    0.8123   49.9510 H       1  ZINC001109848453    0.4200
     34 H34        -1.1274    2.4361   45.3452 H       1  ZINC001109848453    0.2000
     35 H35         0.2012    0.4172   45.2896 H       1  ZINC001109848453    0.1900
     36 H36        -3.0229    2.6897   52.2092 H       1  ZINC001109848453    0.1100
     37 H37        -2.8010    5.1921   52.5627 H       1  ZINC001109848453    0.1000
     38 H38        -4.0918    5.4878   51.2791 H       1  ZINC001109848453    0.1000
     39 H39        -5.7599    4.1561   52.6497 H       1  ZINC001109848453    0.1200
     40 H40        -4.4691    3.8604   53.9333 H       1  ZINC001109848453    0.0900
@<TRIPOS>BOND
     1     1     2    2
     2     2     3    1
     3     2     9   am
     4     3     4    1
     5     3    26    1
     6     3    27    1
     7     4     8    1
     8     4     5    1
     9     5     6    2
    10     5    28    1
    11     6     7    1
    12     7     8    2
    13     7    29    1
    14     9    10    1
    15     9    30    1
    16    10    11    1
    17    10    12    1
    18    10    23    1
    19    12    13    1
    20    12    31    1
    21    12    32    1
    22    13    14    1
    23    13    33    1
    24    14    22    1
    25    14    15    2
    26    15    16    1
    27    16    17    2
    28    16    34    1
    29    17    18    1
    30    17    35    1
    31    18    22    1
    32    18    19    1
    33    19    20    2
    34    20    21    1
    35    21    22    2
    36    23    25    1
    37    23    24    1
    38    23    36    1
    39    24    25    1
    40    24    37    1
    41    24    38    1
    42    25    39    1
    43    25    40    1
@<TRIPOS>SUBSTRUCTURE
     1 ZINC001109848453        1 TEMP              0 ****  ****    0 ROOT


##########                                Name:    ZINC000434204837
##########                DOCK_Rotatable_Bonds:                   7
##########                         Heavy_Atoms:                  29
##########                    Molecular_Weight:             406.511
##########                DOCK_Rotatable_Bonds:                   7
##########                       Formal_Charge:          -0.0200002
##########                     HBond_Acceptors:                   8
##########                        HBond_Donors:                   0
##########                         Heavy_Atoms:                  29
##########                          Grid_Score:          -35.961784
##########                     Grid_vdw_energy:          -35.929470
##########                      Grid_es_energy:           -0.032315
##########           Internal_energy_repulsive:           18.145401

@<TRIPOS>MOLECULE
ZINC000434204837
 51 54 1 0 0
SMALL
USER_CHARGES


@<TRIPOS>ATOM
      1 C1        -11.5834   -0.9941   54.6655 C.3     1  ZINC000434204837   -0.1300
      2 C2        -11.4643    0.2880   53.8824 C.ar    1  ZINC000434204837   -0.0700
      3 C3        -12.2494    1.3760   54.2145 C.ar    1  ZINC000434204837   -0.1200
      4 C4        -12.1401    2.5522   53.4960 C.ar    1  ZINC000434204837   -0.1100
      5 C5        -11.2457    2.6401   52.4460 C.ar    1  ZINC000434204837   -0.1300
      6 C6        -10.4598    1.5521   52.1144 C.ar    1  ZINC000434204837   -0.0900
      7 C7        -10.5659    0.3776   52.8354 C.ar    1  ZINC000434204837   -0.1000
      8 C8         -9.7093   -0.8084   52.4740 C.3     1  ZINC000434204837    0.0100
      9 C9         -8.3383   -0.3327   52.0678 C.2     1  ZINC000434204837    0.2000
     10 N10        -7.7396    0.7616   52.4725 N.2     1  ZINC000434204837   -0.4600
     11 C11        -6.5458    0.7714   51.8534 C.2     1  ZINC000434204837    0.1700
     12 C12        -5.4795    1.8277   51.9886 C.3     1  ZINC000434204837   -0.0300
     13 S13        -4.2768    1.6459   50.6482 S.3     1  ZINC000434204837    0.0900
     14 C14        -3.0992    2.8665   51.1261 C.2     1  ZINC000434204837    0.2100
     15 N15        -3.2106    3.7103   52.1294 N.2     1  ZINC000434204837   -0.3300
     16 N16        -2.1736    4.4643   52.2003 N.2     1  ZINC000434204837   -0.0200
     17 N17        -1.3366    4.1665   51.2665 N.2     1  ZINC000434204837   -0.0700
     18 N18        -1.9036    3.1100   50.5326 N.pl3   1  ZINC000434204837   -0.3100
     19 C19        -1.3552    2.4542   49.4212 C.ar    1  ZINC000434204837    0.1100
     20 C20        -1.9522    2.5811   48.1742 C.ar    1  ZINC000434204837   -0.1100
     21 C21        -1.4094    1.9343   47.0811 C.ar    1  ZINC000434204837   -0.0900
     22 C22        -0.2728    1.1606   47.2280 C.ar    1  ZINC000434204837   -0.0600
     23 C23         0.3169    0.4562   46.0333 C.3     1  ZINC000434204837   -0.0600
     24 C24        -0.7225   -0.4957   45.4381 C.3     1  ZINC000434204837   -0.1500
     25 C25         0.7233    1.4900   44.9811 C.3     1  ZINC000434204837   -0.1500
     26 C26         0.3241    1.0323   48.4687 C.ar    1  ZINC000434204837   -0.1000
     27 C27        -0.2109    1.6813   49.5643 C.ar    1  ZINC000434204837   -0.0900
     28 N28        -6.4804   -0.2975   51.1173 N.2     1  ZINC000434204837   -0.3600
     29 O29        -7.4978   -0.9483   51.2307 O.3     1  ZINC000434204837    0.0900
     30 H30       -10.8875   -0.9735   55.5043 H       1  ZINC000434204837    0.0800
     31 H31       -12.6016   -1.0975   55.0407 H       1  ZINC000434204837    0.0700
     32 H32       -11.3471   -1.8386   54.0181 H       1  ZINC000434204837    0.0700
     33 H33       -12.9482    1.3073   55.0350 H       1  ZINC000434204837    0.1300
     34 H34       -12.7541    3.4021   53.7551 H       1  ZINC000434204837    0.1200
     35 H35       -11.1609    3.5587   51.8843 H       1  ZINC000434204837    0.1300
     36 H36        -9.7611    1.6207   51.2938 H       1  ZINC000434204837    0.1300
     37 H37        -9.6237   -1.4708   53.3354 H       1  ZINC000434204837    0.1200
     38 H38       -10.1670   -1.3480   51.6448 H       1  ZINC000434204837    0.1200
     39 H39        -5.9374    2.8154   51.9344 H       1  ZINC000434204837    0.1300
     40 H40        -4.9746    1.7134   52.9478 H       1  ZINC000434204837    0.1400
     41 H41        -2.8403    3.1847   48.0590 H       1  ZINC000434204837    0.1400
     42 H42        -1.8733    2.0327   46.1109 H       1  ZINC000434204837    0.1400
     43 H43         1.1944   -0.1114   46.3429 H       1  ZINC000434204837    0.0800
     44 H44        -1.6000    0.0721   45.1286 H       1  ZINC000434204837    0.0600
     45 H45        -0.2960   -1.0052   44.5741 H       1  ZINC000434204837    0.0600
     46 H46        -1.0121   -1.2322   46.1878 H       1  ZINC000434204837    0.0600
     47 H47         1.4639    2.1682   45.4051 H       1  ZINC000434204837    0.0600
     48 H48         1.1499    0.9805   44.1171 H       1  ZINC000434204837    0.0600
     49 H49        -0.1541    2.0576   44.6716 H       1  ZINC000434204837    0.0600
     50 H50         1.2115    0.4270   48.5804 H       1  ZINC000434204837    0.1400
     51 H51         0.2558    1.5808   50.5331 H       1  ZINC000434204837    0.1400
@<TRIPOS>BOND
     1     1     2    1
     2     1    30    1
     3     1    31    1
     4     1    32    1
     5     2     7   ar
     6     2     3   ar
     7     3     4   ar
     8     3    33    1
     9     4     5   ar
    10     4    34    1
    11     5     6   ar
    12     5    35    1
    13     6     7   ar
    14     6    36    1
    15     7     8    1
    16     8     9    1
    17     8    37    1
    18     8    38    1
    19     9    29    1
    20     9    10    2
    21    10    11    1
    22    11    12    1
    23    11    28    2
    24    12    13    1
    25    12    39    1
    26    12    40    1
    27    13    14    1
    28    14    18    1
    29    14    15    2
    30    15    16    1
    31    16    17    2
    32    17    18    1
    33    18    19    1
    34    19    27   ar
    35    19    20   ar
    36    20    21   ar
    37    20    41    1
    38    21    22   ar
    39    21    42    1
    40    22    23    1
    41    22    26   ar
    42    23    24    1
    43    23    25    1
    44    23    43    1
    45    24    44    1
    46    24    45    1
    47    24    46    1
    48    25    47    1
    49    25    48    1
    50    25    49    1
    51    26    27   ar
    52    26    50    1
    53    27    51    1
    54    28    29    1
@<TRIPOS>SUBSTRUCTURE
     1 ZINC000434204837        1 TEMP              0 ****  ****    0 ROOT


##########                                Name:    ZINC001109082135
##########                DOCK_Rotatable_Bonds:                   9
##########                         Heavy_Atoms:                  27
##########                    Molecular_Weight:             373.455
##########                DOCK_Rotatable_Bonds:                   9
##########                       Formal_Charge:          -0.0100003
##########                     HBond_Acceptors:                   8
##########                        HBond_Donors:                   3
##########                         Heavy_Atoms:                  27
##########                          Grid_Score:          -35.942257
##########                     Grid_vdw_energy:          -35.004314
##########                      Grid_es_energy:           -0.937944
##########           Internal_energy_repulsive:           22.926569

@<TRIPOS>MOLECULE
ZINC001109082135
 54 57 1 0 0
SMALL
USER_CHARGES


@<TRIPOS>ATOM
      1 C1        -13.4310    1.8907   50.1017 C.3     1  ZINC001109082135   -0.1400
      2 C2        -12.3270    2.3078   51.0754 C.3     1  ZINC001109082135   -0.1400
      3 C3        -11.5501    1.0902   51.5054 C.2     1  ZINC001109082135    0.5100
      4 O4        -12.0976    0.0093   51.5591 O.2     1  ZINC001109082135   -0.5400
      5 N5        -10.2469    1.2023   51.8302 N.am    1  ZINC001109082135   -0.7200
      6 C6         -9.4921    0.0189   52.2499 C.3     1  ZINC001109082135    0.1000
      7 C7         -8.0310    0.2191   51.9400 C.2     1  ZINC001109082135    0.5100
      8 O8         -7.3497   -0.7230   51.5945 O.2     1  ZINC001109082135   -0.5300
      9 N9         -7.4813    1.4450   52.0466 N.am    1  ZINC001109082135   -0.7100
     10 C10        -6.0612    1.6399   51.7436 C.3     1  ZINC001109082135    0.1100
     11 H11        -5.4454    0.9830   52.3579 H       1  ZINC001109082135    0.0900
     12 C12        -5.7864    1.3956   50.2395 C.3     1  ZINC001109082135   -0.1600
     13 C13        -5.2513    2.7711   49.7388 C.3     1  ZINC001109082135    0.0600
     14 H14        -4.6672    2.7423   48.8189 H       1  ZINC001109082135    0.1300
     15 C15        -6.4983    3.7056   49.7154 C.3     1  ZINC001109082135   -0.1200
     16 C16        -6.7916    3.9555   51.2150 C.3     1  ZINC001109082135   -0.1100
     17 C17        -5.6545    3.1294   51.9549 C.3     1  ZINC001109082135    0.0400
     18 H18        -5.4418    3.4349   52.9794 H       1  ZINC001109082135    0.1200
     19 N19        -4.5244    3.2608   50.9641 N.3     1  ZINC001109082135   -0.4800
     20 C20        -3.4074    2.3753   51.3193 C.3     1  ZINC001109082135    0.0800
     21 C21        -2.3618    2.4262   50.2352 C.2     1  ZINC001109082135    0.2000
     22 C22        -1.6307    3.5596   50.0455 C.2     1  ZINC001109082135   -0.2900
     23 C23        -0.6601    3.5734   49.0226 C.2     1  ZINC001109082135    0.5200
     24 O24         0.0166    4.5677   48.8193 O.2     1  ZINC001109082135   -0.5400
     25 N25        -0.4954    2.4623   48.2733 N.am    1  ZINC001109082135   -0.6300
     26 C26        -1.2514    1.3726   48.5120 C.2     1  ZINC001109082135    0.4300
     27 C27        -1.0551    0.1405   47.6666 C.3     1  ZINC001109082135   -0.1400
     28 C28        -0.6826    0.3445   46.1968 C.3     1  ZINC001109082135   -0.1400
     29 C29         0.3646   -0.1683   47.1874 C.3     1  ZINC001109082135   -0.1400
     30 N30        -2.1470    1.3583   49.4630 N.2     1  ZINC001109082135   -0.5300
     31 H31       -14.1021    1.1865   50.5933 H       1  ZINC001109082135    0.0600
     32 H32       -13.9928    2.7714   49.7907 H       1  ZINC001109082135    0.0600
     33 H33       -12.9844    1.4172   49.2273 H       1  ZINC001109082135    0.0600
     34 H34       -11.6558    3.0121   50.5838 H       1  ZINC001109082135    0.1000
     35 H35       -12.7735    2.7813   51.9497 H       1  ZINC001109082135    0.1000
     36 H36        -9.8087    2.0666   51.7861 H       1  ZINC001109082135    0.4100
     37 H37        -9.6188   -0.1314   53.3221 H       1  ZINC001109082135    0.1000
     38 H38        -9.8606   -0.8559   51.7143 H       1  ZINC001109082135    0.1000
     39 H39        -8.0258    2.1982   52.3241 H       1  ZINC001109082135    0.4000
     40 H40        -5.0322    0.6197   50.1082 H       1  ZINC001109082135    0.0800
     41 H41        -6.7067    1.1295   49.7195 H       1  ZINC001109082135    0.0800
     42 H42        -6.2662    4.6423   49.2085 H       1  ZINC001109082135    0.0700
     43 H43        -7.3419    3.2080   49.2371 H       1  ZINC001109082135    0.0700
     44 H44        -6.7051    5.0160   51.4514 H       1  ZINC001109082135    0.0700
     45 H45        -7.7806    3.5817   51.4800 H       1  ZINC001109082135    0.0700
     46 H46        -2.9694    2.7032   52.2621 H       1  ZINC001109082135    0.1000
     47 H47        -3.7727    1.3538   51.4241 H       1  ZINC001109082135    0.0700
     48 H48        -1.7912    4.4295   50.6651 H       1  ZINC001109082135    0.1600
     49 H49         0.1660    2.4485   47.5638 H       1  ZINC001109082135    0.4200
     50 H50        -1.6990   -0.7044   47.9105 H       1  ZINC001109082135    0.1300
     51 H51        -1.0816   -0.3664   45.4732 H       1  ZINC001109082135    0.1100
     52 H52        -0.5796    1.3697   45.8412 H       1  ZINC001109082135    0.1100
     53 H53         1.1567    0.5195   47.4834 H       1  ZINC001109082135    0.1100
     54 H54         0.6546   -1.2166   47.1154 H       1  ZINC001109082135    0.1100
@<TRIPOS>BOND
     1     1     2    1
     2     1    31    1
     3     1    32    1
     4     1    33    1
     5     2     3    1
     6     2    34    1
     7     2    35    1
     8     3     4    2
     9     3     5   am
    10     5     6    1
    11     5    36    1
    12     6     7    1
    13     6    37    1
    14     6    38    1
    15     7     8    2
    16     7     9   am
    17     9    10    1
    18     9    39    1
    19    10    11    1
    20    10    17    1
    21    10    12    1
    22    12    13    1
    23    12    40    1
    24    12    41    1
    25    13    14    1
    26    13    19    1
    27    13    15    1
    28    15    16    1
    29    15    42    1
    30    15    43    1
    31    16    17    1
    32    16    44    1
    33    16    45    1
    34    17    18    1
    35    17    19    1
    36    19    20    1
    37    20    21    1
    38    20    46    1
    39    20    47    1
    40    21    30    1
    41    21    22    2
    42    22    23    1
    43    22    48    1
    44    23    24    2
    45    23    25   am
    46    25    26    1
    47    25    49    1
    48    26    27    1
    49    26    30    2
    50    27    29    1
    51    27    28    1
    52    27    50    1
    53    28    29    1
    54    28    51    1
    55    28    52    1
    56    29    53    1
    57    29    54    1
@<TRIPOS>SUBSTRUCTURE
     1 ZINC001109082135        1 TEMP              0 ****  ****    0 ROOT


##########                                Name:    ZINC000008416770
##########                DOCK_Rotatable_Bonds:                  13
##########                         Heavy_Atoms:                  30
##########                    Molecular_Weight:             412.442
##########                DOCK_Rotatable_Bonds:                  13
##########                       Formal_Charge:          -0.0199998
##########                     HBond_Acceptors:                   8
##########                        HBond_Donors:                   2
##########                         Heavy_Atoms:                  30
##########                          Grid_Score:          -35.910099
##########                     Grid_vdw_energy:          -35.098064
##########                      Grid_es_energy:           -0.812036
##########           Internal_energy_repulsive:           10.552537

@<TRIPOS>MOLECULE
ZINC000008416770
 54 55 1 0 0
SMALL
USER_CHARGES


@<TRIPOS>ATOM
      1 C1        -16.1988   -2.4682   56.5668 C.3     1  ZINC000008416770   -0.1500
      2 C2        -16.2176   -1.6702   55.2615 C.3     1  ZINC000008416770    0.0600
      3 O3        -14.8595   -1.3112   54.8942 O.3     1  ZINC000008416770   -0.3500
      4 C4        -14.6987   -0.6121   53.7534 C.2     1  ZINC000008416770    0.5100
      5 O5        -15.6619   -0.3502   53.0606 O.2     1  ZINC000008416770   -0.5100
      6 C6        -13.3538   -0.1651   53.3459 C.ar    1  ZINC000008416770   -0.1500
      7 C7        -12.2532   -0.4121   54.1718 C.ar    1  ZINC000008416770   -0.0400
      8 C8        -10.9992    0.0062   53.7880 C.ar    1  ZINC000008416770   -0.1400
      9 C9        -10.8264    0.6742   52.5798 C.ar    1  ZINC000008416770    0.1800
     10 N10        -9.5549    1.0964   52.1943 N.am    1  ZINC000008416770   -0.6700
     11 C11        -8.5924    0.1886   51.9373 C.2     1  ZINC000008416770    0.5200
     12 O12        -8.8325   -0.9956   52.0413 O.2     1  ZINC000008416770   -0.5100
     13 C13        -7.2180    0.6451   51.5207 C.3     1  ZINC000008416770   -0.1300
     14 C14        -7.1515    2.1730   51.5694 C.3     1  ZINC000008416770   -0.1000
     15 C15        -5.8244    2.6356   51.0256 C.2     1  ZINC000008416770    0.4700
     16 O16        -5.7615    3.6437   50.3625 O.2     1  ZINC000008416770   -0.5100
     17 O17        -4.7122    1.9277   51.2778 O.3     1  ZINC000008416770   -0.3300
     18 C18        -3.4692    2.6700   51.3884 C.3     1  ZINC000008416770    0.0500
     19 C19        -2.6137    2.4003   50.1774 C.2     1  ZINC000008416770    0.5100
     20 O20        -1.7457    3.1861   49.8607 O.2     1  ZINC000008416770   -0.4900
     21 N21        -2.8130    1.2858   49.4463 N.am    1  ZINC000008416770   -0.6700
     22 C22        -2.0188    1.0353   48.3219 C.ar    1  ZINC000008416770    0.1400
     23 C23        -1.1653   -0.0601   48.3029 C.ar    1  ZINC000008416770   -0.1400
     24 C24        -0.3826   -0.3046   47.1915 C.ar    1  ZINC000008416770   -0.1000
     25 C25        -0.4478    0.5402   46.0987 C.ar    1  ZINC000008416770   -0.1000
     26 C26         0.4080    0.2706   44.8878 C.3     1  ZINC000008416770   -0.1200
     27 C27        -1.2970    1.6314   46.1143 C.ar    1  ZINC000008416770   -0.1000
     28 C28        -2.0864    1.8782   47.2203 C.ar    1  ZINC000008416770   -0.1200
     29 C29       -11.9195    0.9215   51.7550 C.ar    1  ZINC000008416770   -0.1600
     30 C30       -13.1757    0.5017   52.1301 C.ar    1  ZINC000008416770   -0.0300
     31 H31       -15.6079   -3.3738   56.4306 H       1  ZINC000008416770    0.0700
     32 H32       -15.7571   -1.8613   57.3572 H       1  ZINC000008416770    0.0700
     33 H33       -17.2184   -2.7376   56.8425 H       1  ZINC000008416770    0.0800
     34 H34       -16.6594   -2.2769   54.4711 H       1  ZINC000008416770    0.0700
     35 H35       -16.8086   -0.7646   55.3976 H       1  ZINC000008416770    0.0700
     36 H36       -12.3867   -0.9303   55.1100 H       1  ZINC000008416770    0.1400
     37 H37       -10.1486   -0.1840   54.4257 H       1  ZINC000008416770    0.1400
     38 H38        -9.3629    2.0436   52.1111 H       1  ZINC000008416770    0.4200
     39 H39        -6.4749    0.2273   52.1999 H       1  ZINC000008416770    0.1100
     40 H40        -7.0144    0.3049   50.5053 H       1  ZINC000008416770    0.1100
     41 H41        -7.9571    2.5911   50.9658 H       1  ZINC000008416770    0.1200
     42 H42        -7.2586    2.5086   52.6009 H       1  ZINC000008416770    0.1200
     43 H43        -3.6870    3.7363   51.4493 H       1  ZINC000008416770    0.1100
     44 H44        -2.9371    2.3560   52.2863 H       1  ZINC000008416770    0.1100
     45 H45        -3.5071    0.6573   49.6995 H       1  ZINC000008416770    0.4100
     46 H46        -1.1133   -0.7198   49.1564 H       1  ZINC000008416770    0.1300
     47 H47         0.2813   -1.1562   47.1760 H       1  ZINC000008416770    0.1300
     48 H48        -0.1353   -0.3715   44.1946 H       1  ZINC000008416770    0.0700
     49 H49         0.6498    1.2132   44.3967 H       1  ZINC000008416770    0.0700
     50 H50         1.3286   -0.2248   45.1966 H       1  ZINC000008416770    0.0700
     51 H51        -1.3456    2.2894   45.2591 H       1  ZINC000008416770    0.1300
     52 H52        -2.7495    2.7307   47.2319 H       1  ZINC000008416770    0.1300
     53 H53       -11.7817    1.4399   50.8177 H       1  ZINC000008416770    0.1400
     54 H54       -14.0236    0.6940   51.4895 H       1  ZINC000008416770    0.1400
@<TRIPOS>BOND
     1     1     2    1
     2     1    31    1
     3     1    32    1
     4     1    33    1
     5     2     3    1
     6     2    34    1
     7     2    35    1
     8     3     4    1
     9     4     5    2
    10     4     6    1
    11     6    30   ar
    12     6     7   ar
    13     7     8   ar
    14     7    36    1
    15     8     9   ar
    16     8    37    1
    17     9    10    1
    18     9    29   ar
    19    10    11   am
    20    10    38    1
    21    11    12    2
    22    11    13    1
    23    13    14    1
    24    13    39    1
    25    13    40    1
    26    14    15    1
    27    14    41    1
    28    14    42    1
    29    15    16    2
    30    15    17    1
    31    17    18    1
    32    18    19    1
    33    18    43    1
    34    18    44    1
    35    19    20    2
    36    19    21   am
    37    21    22    1
    38    21    45    1
    39    22    28   ar
    40    22    23   ar
    41    23    24   ar
    42    23    46    1
    43    24    25   ar
    44    24    47    1
    45    25    26    1
    46    25    27   ar
    47    26    48    1
    48    26    49    1
    49    26    50    1
    50    27    28   ar
    51    27    51    1
    52    28    52    1
    53    29    30   ar
    54    29    53    1
    55    30    54    1
@<TRIPOS>SUBSTRUCTURE
     1 ZINC000008416770        1 TEMP              0 ****  ****    0 ROOT


##########                                Name:    ZINC001105793963
##########                DOCK_Rotatable_Bonds:                   9
##########                         Heavy_Atoms:                  24
##########                    Molecular_Weight:             337.422
##########                DOCK_Rotatable_Bonds:                   9
##########                       Formal_Charge:          -0.0100003
##########                     HBond_Acceptors:                   8
##########                        HBond_Donors:                   2
##########                         Heavy_Atoms:                  24
##########                          Grid_Score:          -35.724960
##########                     Grid_vdw_energy:          -35.541019
##########                      Grid_es_energy:           -0.183940
##########           Internal_energy_repulsive:            8.035538

@<TRIPOS>MOLECULE
ZINC001105793963
 51 52 1 0 0
SMALL
USER_CHARGES


@<TRIPOS>ATOM
      1 C1          0.0982    0.8586   45.2209 C.3     1  ZINC001105793963   -0.1500
      2 C2         -0.4009   -0.3680   45.9874 C.3     1  ZINC001105793963   -0.0300
      3 C3         -1.0798    0.0754   47.2576 C.2     1  ZINC001105793963    0.1800
      4 N4         -1.6733    1.2262   47.4651 N.2     1  ZINC001105793963   -0.4800
      5 C5         -2.1289    1.1757   48.7295 C.2     1  ZINC001105793963    0.1700
      6 C6         -2.8873    2.2616   49.4483 C.3     1  ZINC001105793963    0.1500
      7 N7         -3.9514    1.6591   50.2625 N.3     1  ZINC001105793963   -0.6900
      8 C8         -4.8187    2.6926   50.8436 C.3     1  ZINC001105793963    0.0700
      9 C9         -5.7547    2.0540   51.8716 C.3     1  ZINC001105793963   -0.1000
     10 H10        -5.1782    1.6070   52.6816 H       1  ZINC001105793963    0.1000
     11 C11        -6.6470    0.9899   51.1971 C.3     1  ZINC001105793963    0.1100
     12 N12        -7.9605    1.1228   51.8692 N.am    1  ZINC001105793963   -0.6200
     13 C13        -8.8021    0.1381   52.2414 C.2     1  ZINC001105793963    0.5300
     14 O14        -8.5104   -1.0203   52.0322 O.2     1  ZINC001105793963   -0.5300
     15 C15       -10.1056    0.4767   52.9177 C.3     1  ZINC001105793963    0.1300
     16 H16        -9.9701    1.3548   53.5490 H       1  ZINC001105793963    0.1100
     17 C17       -11.1691    0.7697   51.8575 C.3     1  ZINC001105793963   -0.1600
     18 N18       -10.5366   -0.6553   53.7418 N.am    1  ZINC001105793963   -0.7200
     19 C19       -11.4785   -0.4790   54.6895 C.2     1  ZINC001105793963    0.5200
     20 C20       -11.9205   -1.6430   55.5385 C.3     1  ZINC001105793963   -0.1700
     21 O21       -11.9704    0.6165   54.8591 O.2     1  ZINC001105793963   -0.5500
     22 C22        -8.1391    2.5837   52.0393 C.3     1  ZINC001105793963    0.1000
     23 C23        -6.7366    3.1054   52.4291 C.3     1  ZINC001105793963   -0.1000
     24 H24        -6.5525    4.0766   51.9696 H       1  ZINC001105793963    0.0900
     25 C25        -6.6101    3.2052   53.9506 C.3     1  ZINC001105793963   -0.1500
     26 N26        -1.7955    0.0184   49.2174 N.2     1  ZINC001105793963   -0.3700
     27 O27        -1.1971   -0.6311   48.3859 O.3     1  ZINC001105793963    0.0800
     28 H28        -0.7466    1.5023   44.9756 H       1  ZINC001105793963    0.0600
     29 H29         0.8074    1.4093   45.8387 H       1  ZINC001105793963    0.0600
     30 H30         0.5893    0.5379   44.3021 H       1  ZINC001105793963    0.0800
     31 H31        -1.1100   -0.9187   45.3695 H       1  ZINC001105793963    0.1100
     32 H32         0.4439   -1.0117   46.2325 H       1  ZINC001105793963    0.1000
     33 H33        -2.2052    2.8151   50.0936 H       1  ZINC001105793963    0.1000
     34 H34        -3.3285    2.9407   48.7186 H       1  ZINC001105793963    0.0700
     35 H35        -4.4890    0.9975   49.7228 H       1  ZINC001105793963    0.3500
     36 H36        -4.2050    3.4496   51.3318 H       1  ZINC001105793963    0.0800
     37 H37        -5.4092    3.1575   50.0540 H       1  ZINC001105793963    0.0400
     38 H38        -6.7431    1.1951   50.1309 H       1  ZINC001105793963    0.0700
     39 H39        -6.2370   -0.0072   51.3577 H       1  ZINC001105793963    0.0900
     40 H40       -12.1120    1.0145   52.3466 H       1  ZINC001105793963    0.0800
     41 H41       -10.8484    1.6119   51.2443 H       1  ZINC001105793963    0.0800
     42 H42       -11.3046   -0.1085   51.2263 H       1  ZINC001105793963    0.0600
     43 H43       -10.1440   -1.5318   53.6053 H       1  ZINC001105793963    0.4100
     44 H44       -11.3718   -2.5373   55.2429 H       1  ZINC001105793963    0.0800
     45 H45       -11.7207   -1.4242   56.5874 H       1  ZINC001105793963    0.1000
     46 H46       -12.9886   -1.8095   55.3990 H       1  ZINC001105793963    0.1000
     47 H47        -8.4682    3.0377   51.1046 H       1  ZINC001105793963    0.0800
     48 H48        -8.8547    2.7889   52.8353 H       1  ZINC001105793963    0.0900
     49 H49        -6.7841    2.2251   54.3946 H       1  ZINC001105793963    0.0600
     50 H50        -5.6090    3.5493   54.2102 H       1  ZINC001105793963    0.0600
     51 H51        -7.3474    3.9123   54.3308 H       1  ZINC001105793963    0.0600
@<TRIPOS>BOND
     1     1     2    1
     2     1    28    1
     3     1    29    1
     4     1    30    1
     5     2     3    1
     6     2    31    1
     7     2    32    1
     8     3    27    1
     9     3     4    2
    10     4     5    1
    11     5     6    1
    12     5    26    2
    13     6     7    1
    14     6    33    1
    15     6    34    1
    16     7     8    1
    17     7    35    1
    18     8     9    1
    19     8    36    1
    20     8    37    1
    21     9    10    1
    22     9    23    1
    23     9    11    1
    24    11    12    1
    25    11    38    1
    26    11    39    1
    27    12    13   am
    28    12    22    1
    29    13    14    2
    30    13    15    1
    31    15    16    1
    32    15    17    1
    33    15    18    1
    34    17    40    1
    35    17    41    1
    36    17    42    1
    37    18    19   am
    38    18    43    1
    39    19    20    1
    40    19    21    2
    41    20    44    1
    42    20    45    1
    43    20    46    1
    44    22    23    1
    45    22    47    1
    46    22    48    1
    47    23    24    1
    48    23    25    1
    49    25    49    1
    50    25    50    1
    51    25    51    1
    52    26    27    1
@<TRIPOS>SUBSTRUCTURE
     1 ZINC001105793963        1 TEMP              0 ****  ****    0 ROOT


##########                                Name:    ZINC000428266315
##########                DOCK_Rotatable_Bonds:                  10
##########                         Heavy_Atoms:                  30
##########                    Molecular_Weight:             423.438
##########                DOCK_Rotatable_Bonds:                  10
##########                       Formal_Charge:          0.00999977
##########                     HBond_Acceptors:                  10
##########                        HBond_Donors:                   0
##########                         Heavy_Atoms:                  30
##########                          Grid_Score:          -35.557442
##########                     Grid_vdw_energy:          -34.308147
##########                      Grid_es_energy:           -1.249295
##########           Internal_energy_repulsive:           17.732122

@<TRIPOS>MOLECULE
ZINC000428266315
 54 56 1 0 0
SMALL
USER_CHARGES


@<TRIPOS>ATOM
      1 C1        -11.2309   -1.4371   56.2077 C.3     1  ZINC000428266315   -0.1500
      2 C2        -11.2078   -0.6734   54.8821 C.3     1  ZINC000428266315    0.0600
      3 O3        -11.2300   -1.6027   53.7967 O.3     1  ZINC000428266315   -0.3700
      4 C4        -11.2373   -0.9890   52.5062 C.3     1  ZINC000428266315    0.1800
      5 H5        -11.2644   -1.7608   51.7369 H       1  ZINC000428266315    0.0900
      6 C6        -12.4712   -0.0939   52.3741 C.3     1  ZINC000428266315   -0.1700
      7 C7         -9.9925   -0.1563   52.3388 C.2     1  ZINC000428266315    0.1700
      8 N8         -8.8482   -0.5673   51.8803 N.2     1  ZINC000428266315   -0.3500
      9 O9         -8.0482    0.3443   51.8695 O.3     1  ZINC000428266315    0.0800
     10 C10        -8.6237    1.4574   52.3343 C.2     1  ZINC000428266315    0.1900
     11 C11        -7.9737    2.8088   52.4834 C.3     1  ZINC000428266315    0.1500
     12 N12        -6.8442    2.9146   51.5500 N.3     1  ZINC000428266315   -0.5300
     13 C13        -6.6422    4.3057   51.1235 C.3     1  ZINC000428266315    0.0200
     14 C14        -5.6185    2.3622   52.1421 C.3     1  ZINC000428266315    0.1400
     15 C15        -4.4957    2.4442   51.1403 C.2     1  ZINC000428266315   -0.2300
     16 C16        -3.2151    2.7912   51.4064 C.2     1  ZINC000428266315    0.0800
     17 N17        -2.5265    2.7434   50.2468 N.pl3   1  ZINC000428266315   -0.3700
     18 C18        -1.1030    3.0449   50.0767 C.3     1  ZINC000428266315    0.1700
     19 C19        -0.6130    2.4428   48.7850 C.ar    1  ZINC000428266315   -0.0800
     20 C20        -0.4163    1.0779   48.6894 C.ar    1  ZINC000428266315   -0.1000
     21 C21         0.0332    0.5256   47.5046 C.ar    1  ZINC000428266315   -0.0700
     22 C22         0.2856    1.3382   46.4152 C.ar    1  ZINC000428266315   -0.1700
     23 C23         0.7762    0.7363   45.1236 C.3     1  ZINC000428266315    0.5100
     24 F24         0.0802   -0.4502   44.8682 F       1  ZINC000428266315   -0.1700
     25 F25         0.5595    1.6385   44.0767 F       1  ZINC000428266315   -0.1800
     26 F26         2.1440    0.4616   45.2271 F       1  ZINC000428266315   -0.1800
     27 C27         0.0877    2.7031   46.5104 C.ar    1  ZINC000428266315   -0.0700
     28 C28        -0.3656    3.2548   47.6940 C.ar    1  ZINC000428266315   -0.0800
     29 N29        -3.4133    2.3542   49.2346 N.2     1  ZINC000428266315   -0.2900
     30 C30        -4.5916    2.1693   49.7723 C.2     1  ZINC000428266315    0.0600
     31 N31        -9.8634    1.1501   52.6312 N.2     1  ZINC000428266315   -0.4600
     32 H32       -11.2139   -0.7284   57.0357 H       1  ZINC000428266315    0.0700
     33 H33       -12.1373   -2.0399   56.2639 H       1  ZINC000428266315    0.0600
     34 H34       -10.3580   -2.0871   56.2679 H       1  ZINC000428266315    0.0600
     35 H35       -12.0808   -0.0235   54.8219 H       1  ZINC000428266315    0.0500
     36 H36       -10.3014   -0.0706   54.8259 H       1  ZINC000428266315    0.0500
     37 H37       -12.4442    0.6778   53.1434 H       1  ZINC000428266315    0.0700
     38 H38       -12.4768    0.3742   51.3898 H       1  ZINC000428266315    0.0700
     39 H39       -13.3716   -0.6963   52.4952 H       1  ZINC000428266315    0.0700
     40 H40        -8.7021    3.5888   52.2621 H       1  ZINC000428266315    0.0800
     41 H41        -7.6130    2.9278   53.5051 H       1  ZINC000428266315    0.1200
     42 H42        -6.4347    4.9265   51.9952 H       1  ZINC000428266315    0.0400
     43 H43        -5.8001    4.3555   50.4333 H       1  ZINC000428266315    0.0800
     44 H44        -7.5420    4.6674   50.6259 H       1  ZINC000428266315    0.0600
     45 H45        -5.3546    2.9349   53.0313 H       1  ZINC000428266315    0.0500
     46 H46        -5.7851    1.3207   52.4168 H       1  ZINC000428266315    0.0900
     47 H47        -2.8157    3.0586   52.3736 H       1  ZINC000428266315    0.1700
     48 H48        -0.9609    4.1252   50.0509 H       1  ZINC000428266315    0.1000
     49 H49        -0.5404    2.6241   50.9101 H       1  ZINC000428266315    0.1100
     50 H50        -0.6135    0.4430   49.5405 H       1  ZINC000428266315    0.1300
     51 H51         0.1875   -0.5408   47.4300 H       1  ZINC000428266315    0.1400
     52 H52         0.2846    3.3379   45.6591 H       1  ZINC000428266315    0.1400
     53 H53        -0.5202    4.3211   47.7684 H       1  ZINC000428266315    0.1400
     54 H54        -5.4858    1.8647   49.2488 H       1  ZINC000428266315    0.1800
@<TRIPOS>BOND
     1     1     2    1
     2     1    32    1
     3     1    33    1
     4     1    34    1
     5     2     3    1
     6     2    35    1
     7     2    36    1
     8     3     4    1
     9     4     5    1
    10     4     6    1
    11     4     7    1
    12     6    37    1
    13     6    38    1
    14     6    39    1
    15     7    31    1
    16     7     8    2
    17     8     9    1
    18     9    10    1
    19    10    11    1
    20    10    31    2
    21    11    12    1
    22    11    40    1
    23    11    41    1
    24    12    13    1
    25    12    14    1
    26    13    42    1
    27    13    43    1
    28    13    44    1
    29    14    15    1
    30    14    45    1
    31    14    46    1
    32    15    30    1
    33    15    16    2
    34    16    17    1
    35    16    47    1
    36    17    18    1
    37    17    29    1
    38    18    19    1
    39    18    48    1
    40    18    49    1
    41    19    28   ar
    42    19    20   ar
    43    20    21   ar
    44    20    50    1
    45    21    22   ar
    46    21    51    1
    47    22    23    1
    48    22    27   ar
    49    23    24    1
    50    23    25    1
    51    23    26    1
    52    27    28   ar
    53    27    52    1
    54    28    53    1
    55    29    30    2
    56    30    54    1
@<TRIPOS>SUBSTRUCTURE
     1 ZINC000428266315        1 TEMP              0 ****  ****    0 ROOT


##########                                Name:    ZINC000045927156
##########                DOCK_Rotatable_Bonds:                   7
##########                         Heavy_Atoms:                  30
##########                    Molecular_Weight:             418.522
##########                DOCK_Rotatable_Bonds:                   7
##########                       Formal_Charge:           0.0200001
##########                     HBond_Acceptors:                   8
##########                        HBond_Donors:                   1
##########                         Heavy_Atoms:                  30
##########                          Grid_Score:          -35.548870
##########                     Grid_vdw_energy:          -34.083752
##########                      Grid_es_energy:           -1.465120
##########           Internal_energy_repulsive:           16.683437

@<TRIPOS>MOLECULE
ZINC000045927156
 52 56 1 0 0
SMALL
USER_CHARGES


@<TRIPOS>ATOM
      1 O1        -10.5639   -2.0570   55.5608 O.2     1  ZINC000045927156   -0.5800
      2 C2        -11.6939   -1.6894   55.3026 C.2     1  ZINC000045927156    0.7300
      3 N3        -11.9328   -0.9837   54.1796 N.am    1  ZINC000045927156   -0.7400
      4 C4        -10.8302   -0.6542   53.2729 C.3     1  ZINC000045927156    0.1700
      5 C5        -11.2518    0.4641   52.3549 C.ar    1  ZINC000045927156   -0.0700
      6 C6        -12.4418    0.3744   51.6577 C.ar    1  ZINC000045927156   -0.1000
      7 C7        -12.8286    1.4002   50.8155 C.ar    1  ZINC000045927156   -0.1100
      8 C8        -12.0254    2.5158   50.6711 C.ar    1  ZINC000045927156   -0.1100
      9 C9        -10.8355    2.6059   51.3692 C.ar    1  ZINC000045927156   -0.1000
     10 C10       -10.4509    1.5823   52.2145 C.ar    1  ZINC000045927156   -0.1000
     11 C11        -9.1539    1.6806   52.9755 C.3     1  ZINC000045927156    0.1700
     12 N12        -8.1397    0.8502   52.3212 N.pl3   1  ZINC000045927156   -0.3800
     13 C13        -6.8343    1.1369   52.1768 C.2     1  ZINC000045927156    0.2500
     14 N14        -6.2686    0.1438   51.5399 N.2     1  ZINC000045927156   -0.5400
     15 C15        -7.1766   -0.7910   51.2624 C.2     1  ZINC000045927156    0.2000
     16 N16        -8.3368   -0.4064   51.7256 N.2     1  ZINC000045927156   -0.3100
     17 N17       -12.7082   -1.9925   56.1367 N.am    1  ZINC000045927156   -0.6200
     18 C18       -14.1205   -1.6161   55.9444 C.3     1  ZINC000045927156    0.1000
     19 C19       -14.9242   -2.6645   56.7534 C.3     1  ZINC000045927156   -0.1300
     20 C20       -14.0070   -2.8758   57.9869 C.3     1  ZINC000045927156   -0.1200
     21 C21       -12.5906   -2.7588   57.3859 C.3     1  ZINC000045927156    0.2300
     22 H22       -12.1916   -3.7523   57.1810 H       1  ZINC000045927156    0.1000
     23 C23       -11.6850   -2.0311   58.3459 C.2     1  ZINC000045927156    0.0900
     24 N24       -11.8587   -0.8207   58.7219 N.2     1  ZINC000045927156   -0.4500
     25 C25       -10.9689   -0.2968   59.5864 C.ar    1  ZINC000045927156    0.0800
     26 C26       -10.9192    0.9908   60.1570 C.ar    1  ZINC000045927156   -0.0700
     27 C27        -9.9205    1.3243   61.0211 C.ar    1  ZINC000045927156   -0.1100
     28 C28        -8.9355    0.4063   61.3563 C.ar    1  ZINC000045927156   -0.1000
     29 C29        -8.9587   -0.8592   60.8141 C.ar    1  ZINC000045927156   -0.0700
     30 C30        -9.9724   -1.2180   59.9286 C.ar    1  ZINC000045927156   -0.1800
     31 S31       -10.3037   -2.7208   59.0728 S.3     1  ZINC000045927156    0.1200
     32 H32       -12.8349   -0.6940   53.9716 H       1  ZINC000045927156    0.3900
     33 H33        -9.9634   -0.3399   53.8543 H       1  ZINC000045927156    0.1000
     34 H34       -10.5718   -1.5323   52.6811 H       1  ZINC000045927156    0.0700
     35 H35       -13.0694   -0.4973   51.7705 H       1  ZINC000045927156    0.1300
     36 H36       -13.7580    1.3299   50.2701 H       1  ZINC000045927156    0.1300
     37 H37       -12.3272    3.3169   50.0127 H       1  ZINC000045927156    0.1300
     38 H38       -10.2077    3.4774   51.2561 H       1  ZINC000045927156    0.1300
     39 H39        -8.8194    2.7178   52.9910 H       1  ZINC000045927156    0.1100
     40 H40        -9.3048    1.3321   53.9972 H       1  ZINC000045927156    0.1000
     41 H41        -6.3390    2.0311   52.5250 H       1  ZINC000045927156    0.2200
     42 H42        -6.9843   -1.7181   50.7430 H       1  ZINC000045927156    0.2200
     43 H43       -14.3028   -0.6148   56.3345 H       1  ZINC000045927156    0.0700
     44 H44       -14.3862   -1.6670   54.8884 H       1  ZINC000045927156    0.0800
     45 H45       -15.8946   -2.2679   57.0515 H       1  ZINC000045927156    0.0900
     46 H46       -15.0387   -3.5898   56.1887 H       1  ZINC000045927156    0.0800
     47 H47       -14.1788   -2.0997   58.7327 H       1  ZINC000045927156    0.0900
     48 H48       -14.1606   -3.8657   58.4166 H       1  ZINC000045927156    0.0900
     49 H49       -11.6777    1.7180   59.9073 H       1  ZINC000045927156    0.1300
     50 H50        -9.8946    2.3151   61.4502 H       1  ZINC000045927156    0.1400
     51 H51        -8.1497    0.6847   62.0428 H       1  ZINC000045927156    0.1400
     52 H52        -8.1913   -1.5730   61.0749 H       1  ZINC000045927156    0.1300
@<TRIPOS>BOND
     1     1     2    2
     2     2     3   am
     3     2    17   am
     4     3     4    1
     5     3    32    1
     6     4     5    1
     7     4    33    1
     8     4    34    1
     9     5    10   ar
    10     5     6   ar
    11     6     7   ar
    12     6    35    1
    13     7     8   ar
    14     7    36    1
    15     8     9   ar
    16     8    37    1
    17     9    10   ar
    18     9    38    1
    19    10    11    1
    20    11    12    1
    21    11    39    1
    22    11    40    1
    23    12    16    1
    24    12    13    1
    25    13    14    2
    26    13    41    1
    27    14    15    1
    28    15    16    2
    29    15    42    1
    30    17    21    1
    31    17    18    1
    32    18    19    1
    33    18    43    1
    34    18    44    1
    35    19    20    1
    36    19    45    1
    37    19    46    1
    38    20    21    1
    39    20    47    1
    40    20    48    1
    41    21    22    1
    42    21    23    1
    43    23    31    1
    44    23    24    2
    45    24    25    1
    46    25    30   ar
    47    25    26   ar
    48    26    27   ar
    49    26    49    1
    50    27    28   ar
    51    27    50    1
    52    28    29   ar
    53    28    51    1
    54    29    30   ar
    55    29    52    1
    56    30    31    1
@<TRIPOS>SUBSTRUCTURE
     1 ZINC000045927156        1 TEMP              0 ****  ****    0 ROOT


##########                                Name:    ZINC000428748914
##########                DOCK_Rotatable_Bonds:                  11
##########                         Heavy_Atoms:                  30
##########                    Molecular_Weight:             413.492
##########                DOCK_Rotatable_Bonds:                  11
##########                       Formal_Charge:           0.0199993
##########                     HBond_Acceptors:                   7
##########                        HBond_Donors:                   3
##########                         Heavy_Atoms:                  30
##########                          Grid_Score:          -35.541901
##########                     Grid_vdw_energy:          -35.281796
##########                      Grid_es_energy:           -0.260105
##########           Internal_energy_repulsive:           15.774408

@<TRIPOS>MOLECULE
ZINC000428748914
 58 61 1 0 0
SMALL
USER_CHARGES


@<TRIPOS>ATOM
      1 O1         -1.1882    2.0108   50.0731 O.2     1  ZINC000428748914   -0.5900
      2 C2         -2.0411    1.1804   49.8255 C.2     1  ZINC000428748914    0.7000
      3 N3         -1.7184    0.0672   49.1378 N.am    1  ZINC000428748914   -0.7400
      4 C4         -0.3411   -0.1395   48.6833 C.3     1  ZINC000428748914    0.1900
      5 C5         -0.1294    0.5820   47.3773 C.ar    1  ZINC000428748914   -0.2000
      6 C6         -0.3377   -0.0737   46.1720 C.ar    1  ZINC000428748914   -0.0200
      7 C7         -0.1318    0.6261   44.9956 C.ar    1  ZINC000428748914   -0.1900
      8 C8          0.2738    1.9528   45.0606 C.ar    1  ZINC000428748914    0.3300
      9 O9          0.4786    2.6497   43.9147 O.3     1  ZINC000428748914   -0.3000
     10 C10         1.0153    3.9677   44.0442 C.3     1  ZINC000428748914    0.0800
     11 C11         2.4534    3.9136   44.6170 C.3     1  ZINC000428748914   -0.1400
     12 C12         3.0661    5.2500   44.1294 C.3     1  ZINC000428748914   -0.1200
     13 C13         2.4890    5.4355   42.7109 C.3     1  ZINC000428748914   -0.1200
     14 C14         1.1851    4.6203   42.6567 C.3     1  ZINC000428748914   -0.1200
     15 N15         0.4619    2.5435   46.2292 N.ar    1  ZINC000428748914   -0.5400
     16 C16         0.2683    1.9044   47.3671 C.ar    1  ZINC000428748914    0.1600
     17 N17        -3.3082    1.3706   50.2436 N.am    1  ZINC000428748914   -0.7400
     18 C18        -3.6591    2.5807   50.9913 C.3     1  ZINC000428748914    0.1800
     19 C19        -5.1805    2.6753   51.1234 C.3     1  ZINC000428748914   -0.1300
     20 C20        -5.9705    2.4426   49.8340 C.3     1  ZINC000428748914    0.1100
     21 O21        -5.3947    3.2126   48.7768 O.3     1  ZINC000428748914   -0.5700
     22 C22        -5.7410    3.6893   52.1226 C.3     1  ZINC000428748914   -0.1400
     23 C23        -5.8072    2.1925   52.4328 C.3     1  ZINC000428748914   -0.1000
     24 H24        -5.1358    1.8074   53.2003 H       1  ZINC000428748914    0.1200
     25 C25        -7.1560    1.5247   52.3546 C.ar    1  ZINC000428748914   -0.0700
     26 C26        -8.2902    2.2108   52.7470 C.ar    1  ZINC000428748914   -0.0900
     27 C27        -9.5275    1.5994   52.6757 C.ar    1  ZINC000428748914   -0.1500
     28 C28        -9.6309    0.2994   52.2105 C.ar    1  ZINC000428748914    0.1000
     29 F29       -10.8401   -0.2991   52.1399 F       1  ZINC000428748914   -0.1400
     30 C30        -8.4943   -0.3866   51.8172 C.ar    1  ZINC000428748914   -0.1500
     31 C31        -7.2586    0.2285   51.8850 C.ar    1  ZINC000428748914   -0.0800
     32 H32        -2.3980   -0.5972   48.9437 H       1  ZINC000428748914    0.4000
     33 H33         0.3504    0.2506   49.4302 H       1  ZINC000428748914    0.0800
     34 H34        -0.1609   -1.2053   48.5430 H       1  ZINC000428748914    0.0800
     35 H35        -0.6528   -1.1065   46.1523 H       1  ZINC000428748914    0.1400
     36 H36        -0.2841    0.1468   44.0398 H       1  ZINC000428748914    0.1400
     37 H37         0.3731    4.5798   44.6776 H       1  ZINC000428748914    0.1000
     38 H38         2.4342    3.8719   45.7060 H       1  ZINC000428748914    0.0700
     39 H39         3.0010    3.0652   44.2065 H       1  ZINC000428748914    0.0800
     40 H40         2.7570    6.0702   44.7773 H       1  ZINC000428748914    0.0700
     41 H41         4.1533    5.1804   44.0929 H       1  ZINC000428748914    0.0700
     42 H42         2.2784    6.4893   42.5283 H       1  ZINC000428748914    0.0700
     43 H43         3.1944    5.0614   41.9689 H       1  ZINC000428748914    0.0700
     44 H44         1.2577    3.8505   41.8884 H       1  ZINC000428748914    0.0800
     45 H45         0.3416    5.2784   42.4479 H       1  ZINC000428748914    0.0700
     46 H46         0.4315    2.4193   48.3023 H       1  ZINC000428748914    0.1600
     47 H47        -3.9879    0.7063   50.0496 H       1  ZINC000428748914    0.3900
     48 H48        -3.2101    2.5377   51.9835 H       1  ZINC000428748914    0.0700
     49 H49        -3.2852    3.4566   50.4609 H       1  ZINC000428748914    0.0900
     50 H50        -5.9368    1.3848   49.5731 H       1  ZINC000428748914    0.0500
     51 H51        -7.0065    2.7472   49.9826 H       1  ZINC000428748914    0.0600
     52 H52        -4.4593    3.0255   48.6184 H       1  ZINC000428748914    0.3800
     53 H53        -5.0260    4.2889   52.6859 H       1  ZINC000428748914    0.1100
     54 H54        -6.6729    4.1909   51.8616 H       1  ZINC000428748914    0.1100
     55 H55        -8.2092    3.2248   53.1098 H       1  ZINC000428748914    0.1400
     56 H56       -10.4133    2.1353   52.9829 H       1  ZINC000428748914    0.1400
     57 H57        -8.5738   -1.4007   51.4545 H       1  ZINC000428748914    0.1400
     58 H58        -6.3720   -0.3062   51.5780 H       1  ZINC000428748914    0.1300
@<TRIPOS>BOND
     1     1     2    2
     2     2     3   am
     3     2    17   am
     4     3     4    1
     5     3    32    1
     6     4     5    1
     7     4    33    1
     8     4    34    1
     9     5    16   ar
    10     5     6   ar
    11     6     7   ar
    12     6    35    1
    13     7     8   ar
    14     7    36    1
    15     8     9    1
    16     8    15   ar
    17     9    10    1
    18    10    14    1
    19    10    11    1
    20    10    37    1
    21    11    12    1
    22    11    38    1
    23    11    39    1
    24    12    13    1
    25    12    40    1
    26    12    41    1
    27    13    14    1
    28    13    42    1
    29    13    43    1
    30    14    44    1
    31    14    45    1
    32    15    16   ar
    33    16    46    1
    34    17    18    1
    35    17    47    1
    36    18    19    1
    37    18    48    1
    38    18    49    1
    39    19    23    1
    40    19    20    1
    41    19    22    1
    42    20    21    1
    43    20    50    1
    44    20    51    1
    45    21    52    1
    46    22    23    1
    47    22    53    1
    48    22    54    1
    49    23    24    1
    50    23    25    1
    51    25    31   ar
    52    25    26   ar
    53    26    27   ar
    54    26    55    1
    55    27    28   ar
    56    27    56    1
    57    28    29    1
    58    28    30   ar
    59    30    31   ar
    60    30    57    1
    61    31    58    1
@<TRIPOS>SUBSTRUCTURE
     1 ZINC000428748914        1 TEMP              0 ****  ****    0 ROOT


##########                                Name:    ZINC000013809319
##########                DOCK_Rotatable_Bonds:                  10
##########                         Heavy_Atoms:                  30
##########                    Molecular_Weight:             407.469
##########                DOCK_Rotatable_Bonds:                  10
##########                       Formal_Charge:         -0.00999978
##########                     HBond_Acceptors:                   7
##########                        HBond_Donors:                   1
##########                         Heavy_Atoms:                  30
##########                          Grid_Score:          -35.455154
##########                     Grid_vdw_energy:          -35.456280
##########                      Grid_es_energy:            0.001124
##########           Internal_energy_repulsive:           14.538969

@<TRIPOS>MOLECULE
ZINC000013809319
 55 57 1 0 0
SMALL
USER_CHARGES


@<TRIPOS>ATOM
      1 C1          1.0880    3.0249   50.1289 C.3     1  ZINC000013809319   -0.1500
      2 C2         -0.3478    2.6125   49.7980 C.3     1  ZINC000013809319    0.0500
      3 O3         -1.2600    3.4980   50.4502 O.3     1  ZINC000013809319   -0.3100
      4 C4         -2.5044    3.0201   50.7093 C.ar    1  ZINC000013809319    0.1500
      5 C5         -3.0576    3.1770   51.9740 C.ar    1  ZINC000013809319   -0.2200
      6 C6         -4.3201    2.6937   52.2402 C.ar    1  ZINC000013809319   -0.0300
      7 C7         -5.0435    2.0460   51.2376 C.ar    1  ZINC000013809319   -0.1100
      8 C8         -6.4001    1.5260   51.5197 C.2     1  ZINC000013809319    0.2300
      9 C9         -7.4571    2.4010   51.7114 C.2     1  ZINC000013809319   -0.2900
     10 C10        -8.7290    1.8645   51.9765 C.2     1  ZINC000013809319    0.5300
     11 O11        -9.6890    2.5973   52.1515 O.2     1  ZINC000013809319   -0.5400
     12 N12        -8.8679    0.5234   52.0332 N.am    1  ZINC000013809319   -0.5100
     13 C13       -10.1824   -0.0623   52.3074 C.3     1  ZINC000013809319    0.0700
     14 C14       -10.4484   -0.0276   53.7903 C.2     1  ZINC000013809319    0.5000
     15 O15       -10.1626    0.9593   54.4348 O.2     1  ZINC000013809319   -0.5200
     16 N16       -11.0038   -1.0933   54.4004 N.am    1  ZINC000013809319   -0.7200
     17 C17       -11.2640   -1.0589   55.8418 C.3     1  ZINC000013809319    0.1300
     18 C18       -11.4735   -2.4845   56.3563 C.3     1  ZINC000013809319   -0.0800
     19 C19       -11.7442   -2.4489   57.8383 C.ar    1  ZINC000013809319   -0.1200
     20 C20       -10.7382   -2.0958   58.7165 C.ar    1  ZINC000013809319   -0.0800
     21 C21       -10.9859   -2.0636   60.0766 C.ar    1  ZINC000013809319   -0.1500
     22 C22       -12.2404   -2.3839   60.5609 C.ar    1  ZINC000013809319   -0.0800
     23 C23       -13.2503   -2.7374   59.6867 C.ar    1  ZINC000013809319   -0.2100
     24 C24       -13.0058   -2.7655   58.3215 C.ar    1  ZINC000013809319    0.1300
     25 O25       -13.9973   -3.1128   57.4595 O.3     1  ZINC000013809319   -0.3100
     26 C26       -15.2754   -3.4088   58.0262 C.3     1  ZINC000013809319    0.0300
     27 C27        -7.8030   -0.2800   51.8384 C.2     1  ZINC000013809319    0.3900
     28 N28        -6.6172    0.2008   51.5864 N.2     1  ZINC000013809319   -0.5300
     29 C29        -4.4846    1.8901   49.9681 C.ar    1  ZINC000013809319   -0.0500
     30 C30        -3.2236    2.3806   49.7073 C.ar    1  ZINC000013809319   -0.1600
     31 H31         1.2619    4.0442   49.7840 H       1  ZINC000013809319    0.0700
     32 H32         1.2411    2.9749   51.2069 H       1  ZINC000013809319    0.0700
     33 H33         1.7839    2.3493   49.6315 H       1  ZINC000013809319    0.0800
     34 H34        -0.5008    2.6624   48.7199 H       1  ZINC000013809319    0.0600
     35 H35        -0.5216    1.5931   50.1428 H       1  ZINC000013809319    0.0600
     36 H36        -2.4971    3.6781   52.7495 H       1  ZINC000013809319    0.1300
     37 H37        -4.7494    2.8157   53.2238 H       1  ZINC000013809319    0.1400
     38 H38        -7.3072    3.4694   51.6589 H       1  ZINC000013809319    0.1600
     39 H39       -10.9507    0.5097   51.7871 H       1  ZINC000013809319    0.1300
     40 H40       -10.1999   -1.0951   51.9592 H       1  ZINC000013809319    0.1300
     41 H41       -11.2313   -1.8831   53.8852 H       1  ZINC000013809319    0.4000
     42 H42       -10.4134   -0.6092   56.3539 H       1  ZINC000013809319    0.0700
     43 H43       -12.1590   -0.4676   56.0354 H       1  ZINC000013809319    0.0700
     44 H44       -12.3227   -2.9351   55.8426 H       1  ZINC000013809319    0.0800
     45 H45       -10.5778   -3.0753   56.1646 H       1  ZINC000013809319    0.0800
     46 H46        -9.7573   -1.8451   58.3405 H       1  ZINC000013809319    0.1300
     47 H47       -10.1977   -1.7878   60.7617 H       1  ZINC000013809319    0.1300
     48 H48       -12.4313   -2.3583   61.6236 H       1  ZINC000013809319    0.1300
     49 H49       -14.2301   -2.9879   60.0656 H       1  ZINC000013809319    0.1300
     50 H50       -15.6462   -2.5353   58.5625 H       1  ZINC000013809319    0.0600
     51 H51       -15.9736   -3.6704   57.2310 H       1  ZINC000013809319    0.1000
     52 H52       -15.1813   -4.2465   58.7171 H       1  ZINC000013809319    0.0600
     53 H53        -7.9362   -1.3506   51.8884 H       1  ZINC000013809319    0.2000
     54 H54        -5.0416    1.3894   49.1900 H       1  ZINC000013809319    0.1400
     55 H55        -2.7907    2.2606   48.7252 H       1  ZINC000013809319    0.1400
@<TRIPOS>BOND
     1     1     2    1
     2     1    31    1
     3     1    32    1
     4     1    33    1
     5     2     3    1
     6     2    34    1
     7     2    35    1
     8     3     4    1
     9     4    30   ar
    10     4     5   ar
    11     5     6   ar
    12     5    36    1
    13     6     7   ar
    14     6    37    1
    15     7     8    1
    16     7    29   ar
    17     8    28    1
    18     8     9    2
    19     9    10    1
    20     9    38    1
    21    10    11    2
    22    10    12   am
    23    12    13    1
    24    12    27    1
    25    13    14    1
    26    13    39    1
    27    13    40    1
    28    14    15    2
    29    14    16   am
    30    16    17    1
    31    16    41    1
    32    17    18    1
    33    17    42    1
    34    17    43    1
    35    18    19    1
    36    18    44    1
    37    18    45    1
    38    19    24   ar
    39    19    20   ar
    40    20    21   ar
    41    20    46    1
    42    21    22   ar
    43    21    47    1
    44    22    23   ar
    45    22    48    1
    46    23    24   ar
    47    23    49    1
    48    24    25    1
    49    25    26    1
    50    26    50    1
    51    26    51    1
    52    26    52    1
    53    27    28    2
    54    27    53    1
    55    29    30   ar
    56    29    54    1
    57    30    55    1
@<TRIPOS>SUBSTRUCTURE
     1 ZINC000013809319        1 TEMP              0 ****  ****    0 ROOT


##########                                Name:    ZINC000442010511
##########                DOCK_Rotatable_Bonds:                  11
##########                         Heavy_Atoms:                  31
##########                    Molecular_Weight:             422.481
##########                DOCK_Rotatable_Bonds:                  11
##########                       Formal_Charge:          -0.0200005
##########                     HBond_Acceptors:                   7
##########                        HBond_Donors:                   2
##########                         Heavy_Atoms:                  31
##########                          Grid_Score:          -35.451332
##########                     Grid_vdw_energy:          -33.900414
##########                      Grid_es_energy:           -1.550920
##########           Internal_energy_repulsive:            9.337203

@<TRIPOS>MOLECULE
ZINC000442010511
 57 59 1 0 0
SMALL
USER_CHARGES


@<TRIPOS>ATOM
      1 C1        -10.9529   -0.5850   51.5852 C.3     1  ZINC000442010511   -0.1500
      2 C2         -9.9378   -0.6727   52.7266 C.3     1  ZINC000442010511   -0.0500
      3 C3         -8.7545    0.2070   52.4152 C.2     1  ZINC000442010511    0.0000
      4 C4         -7.6467   -0.1703   51.7521 C.2     1  ZINC000442010511   -0.2100
      5 C5         -6.8029    0.9623   51.6864 C.2     1  ZINC000442010511   -0.1900
      6 C6         -7.4456    1.9639   52.3133 C.2     1  ZINC000442010511   -0.0300
      7 C7         -6.9280    3.3679   52.4917 C.3     1  ZINC000442010511    0.2400
      8 H8         -7.3675    4.0162   51.7337 H       1  ZINC000442010511    0.1400
      9 C9         -7.3083    3.8788   53.8828 C.3     1  ZINC000442010511    0.0500
     10 O10        -7.1478    2.8271   54.8369 O.3     1  ZINC000442010511   -0.3800
     11 C11        -5.9718    2.9454   55.6401 C.3     1  ZINC000442010511    0.0300
     12 N12        -5.4696    3.3722   52.3518 N.am    1  ZINC000442010511   -0.6900
     13 C13        -4.8227    4.5211   52.0724 C.2     1  ZINC000442010511    0.5200
     14 O14        -5.4485    5.5518   51.9354 O.2     1  ZINC000442010511   -0.5100
     15 C15        -3.3361    4.5258   51.9316 C.2     1  ZINC000442010511    0.5100
     16 O16        -2.7548    5.5582   51.6672 O.2     1  ZINC000442010511   -0.5000
     17 N17        -2.6397    3.3840   52.0981 N.am    1  ZINC000442010511   -0.6300
     18 C18        -1.2474    3.3884   51.9663 C.ar    1  ZINC000442010511    0.1200
     19 C19        -0.4415    3.3552   53.0953 C.ar    1  ZINC000442010511   -0.1000
     20 C20         0.9342    3.3597   52.9622 C.ar    1  ZINC000442010511   -0.1300
     21 C21         1.5108    3.3973   51.7061 C.ar    1  ZINC000442010511   -0.0900
     22 C22         0.7148    3.4310   50.5760 C.ar    1  ZINC000442010511   -0.1700
     23 C23        -0.6651    3.4205   50.6998 C.ar    1  ZINC000442010511    0.1000
     24 O24        -1.4491    3.4536   49.5898 O.3     1  ZINC000442010511   -0.2600
     25 C25        -1.2461    2.5066   48.6369 C.ar    1  ZINC000442010511    0.0800
     26 C26        -1.3045    1.1610   48.9707 C.ar    1  ZINC000442010511   -0.1300
     27 C27        -1.0982    0.2001   47.9999 C.ar    1  ZINC000442010511   -0.1100
     28 C28        -0.8332    0.5783   46.6966 C.ar    1  ZINC000442010511   -0.0800
     29 C29        -0.6080   -0.4721   45.6397 C.3     1  ZINC000442010511   -0.1200
     30 C30        -0.7749    1.9184   46.3611 C.ar    1  ZINC000442010511   -0.1100
     31 C31        -0.9856    2.8832   47.3270 C.ar    1  ZINC000442010511   -0.1100
     32 O32        -8.6297    1.5022   52.7477 O.3     1  ZINC000442010511   -0.1600
     33 H33       -11.2865    0.4466   51.4740 H       1  ZINC000442010511    0.0600
     34 H34       -10.4867   -0.9180   50.6580 H       1  ZINC000442010511    0.0600
     35 H35       -11.8088   -1.2213   51.8104 H       1  ZINC000442010511    0.0700
     36 H36       -10.4041   -0.3398   53.6539 H       1  ZINC000442010511    0.0900
     37 H37        -9.6042   -1.7044   52.8378 H       1  ZINC000442010511    0.0800
     38 H38        -7.4410   -1.1504   51.3478 H       1  ZINC000442010511    0.1500
     39 H39        -5.8291    1.0133   51.2223 H       1  ZINC000442010511    0.1500
     40 H40        -6.6630    4.7150   54.1517 H       1  ZINC000442010511    0.0700
     41 H41        -8.3472    4.2087   53.8771 H       1  ZINC000442010511    0.0700
     42 H42        -5.9230    2.1097   56.3381 H       1  ZINC000442010511    0.0900
     43 H43        -5.0909    2.9347   54.9982 H       1  ZINC000442010511    0.0400
     44 H44        -6.0047    3.8821   56.1965 H       1  ZINC000442010511    0.0400
     45 H45        -4.9696    2.5480   52.4601 H       1  ZINC000442010511    0.4200
     46 H46        -3.1043    2.5591   52.3094 H       1  ZINC000442010511    0.4300
     47 H47        -0.8890    3.3261   54.0778 H       1  ZINC000442010511    0.1600
     48 H48         1.5604    3.3341   53.8418 H       1  ZINC000442010511    0.1300
     49 H49         2.5863    3.4006   51.6074 H       1  ZINC000442010511    0.1300
     50 H50         1.1687    3.4610   49.5966 H       1  ZINC000442010511    0.1300
     51 H51        -1.5108    0.8651   49.9887 H       1  ZINC000442010511    0.1300
     52 H52        -1.1436   -0.8473   48.2592 H       1  ZINC000442010511    0.1300
     53 H53        -1.5603   -0.7330   45.1779 H       1  ZINC000442010511    0.0700
     54 H54         0.0698   -0.0835   44.8797 H       1  ZINC000442010511    0.0700
     55 H55        -0.1707   -1.3597   46.0969 H       1  ZINC000442010511    0.0700
     56 H56        -0.5676    2.2110   45.3424 H       1  ZINC000442010511    0.1300
     57 H57        -0.9402    3.9298   47.0644 H       1  ZINC000442010511    0.1300
@<TRIPOS>BOND
     1     1     2    1
     2     1    33    1
     3     1    34    1
     4     1    35    1
     5     2     3    1
     6     2    36    1
     7     2    37    1
     8     3    32    1
     9     3     4    2
    10     4     5    1
    11     4    38    1
    12     5     6    2
    13     5    39    1
    14     6     7    1
    15     6    32    1
    16     7     8    1
    17     7     9    1
    18     7    12    1
    19     9    10    1
    20     9    40    1
    21     9    41    1
    22    10    11    1
    23    11    42    1
    24    11    43    1
    25    11    44    1
    26    12    13   am
    27    12    45    1
    28    13    14    2
    29    13    15    1
    30    15    16    2
    31    15    17   am
    32    17    18    1
    33    17    46    1
    34    18    23   ar
    35    18    19   ar
    36    19    20   ar
    37    19    47    1
    38    20    21   ar
    39    20    48    1
    40    21    22   ar
    41    21    49    1
    42    22    23   ar
    43    22    50    1
    44    23    24    1
    45    24    25    1
    46    25    31   ar
    47    25    26   ar
    48    26    27   ar
    49    26    51    1
    50    27    28   ar
    51    27    52    1
    52    28    29    1
    53    28    30   ar
    54    29    53    1
    55    29    54    1
    56    29    55    1
    57    30    31   ar
    58    30    56    1
    59    31    57    1
@<TRIPOS>SUBSTRUCTURE
     1 ZINC000442010511        1 TEMP              0 ****  ****    0 ROOT


##########                                Name:    ZINC000980108339
##########                DOCK_Rotatable_Bonds:                   9
##########                         Heavy_Atoms:                  25
##########                    Molecular_Weight:             348.445
##########                DOCK_Rotatable_Bonds:                   9
##########                       Formal_Charge:          -0.0100001
##########                     HBond_Acceptors:                   7
##########                        HBond_Donors:                   3
##########                         Heavy_Atoms:                  25
##########                          Grid_Score:          -35.444283
##########                     Grid_vdw_energy:          -34.279690
##########                      Grid_es_energy:           -1.164594
##########           Internal_energy_repulsive:            8.506663

@<TRIPOS>MOLECULE
ZINC000980108339
 53 56 1 0 0
SMALL
USER_CHARGES


@<TRIPOS>ATOM
      1 C1         -0.5918   -0.9709   46.1235 C.3     1  ZINC000980108339    0.1200
      2 N2         -0.9179   -0.2205   47.3388 N.am    1  ZINC000980108339   -0.6400
      3 C3         -1.3177    1.1939   47.3853 C.3     1  ZINC000980108339    0.1100
      4 C4         -1.5373    1.4662   48.8861 C.3     1  ZINC000980108339    0.1000
      5 H5         -0.8521    2.2368   49.2395 H       1  ZINC000980108339    0.1200
      6 C6         -2.9655    1.8706   49.1468 C.2     1  ZINC000980108339    0.5000
      7 O7         -3.4968    2.7058   48.4460 O.2     1  ZINC000980108339   -0.5200
      8 N8         -3.6524    1.3041   50.1584 N.am    1  ZINC000980108339   -0.7200
      9 C9         -5.0401    1.6984   50.4129 C.3     1  ZINC000980108339    0.1300
     10 C10        -5.1981    2.0885   51.8839 C.3     1  ZINC000980108339   -0.1200
     11 H11        -4.7694    1.3534   52.5651 H       1  ZINC000980108339    0.1000
     12 C12        -4.7687    3.5336   52.1875 C.3     1  ZINC000980108339   -0.1400
     13 C13        -5.9862    3.6153   53.1234 C.3     1  ZINC000980108339    0.1200
     14 H14        -6.5100    4.5700   53.0762 H       1  ZINC000980108339    0.1100
     15 N15        -5.7006    3.1904   54.4961 N.am    1  ZINC000980108339   -0.7200
     16 C16        -6.6840    3.1833   55.4177 C.2     1  ZINC000980108339    0.5200
     17 O17        -7.8058    3.5272   55.1102 O.2     1  ZINC000980108339   -0.5300
     18 C18        -6.3900    2.7480   56.8302 C.3     1  ZINC000980108339   -0.1100
     19 C19        -7.6534    2.1514   57.4535 C.3     1  ZINC000980108339   -0.1300
     20 H20        -7.9463    1.1716   57.0763 H       1  ZINC000980108339    0.1200
     21 C21        -8.7708    3.1191   57.8487 C.3     1  ZINC000980108339   -0.1700
     22 C22        -7.9204    2.4484   58.9305 C.3     1  ZINC000980108339   -0.1200
     23 H23        -7.1962    3.0691   59.4581 H       1  ZINC000980108339    0.1000
     24 C24        -8.5787    1.3480   59.7652 C.3     1  ZINC000980108339   -0.1300
     25 C25        -8.4843    1.4644   61.2879 C.3     1  ZINC000980108339   -0.1800
     26 C26        -9.8163    1.7254   60.5817 C.3     1  ZINC000980108339   -0.1800
     27 C27        -6.6273    2.5152   52.2581 C.3     1  ZINC000980108339   -0.1400
     28 N28        -1.2380    0.1764   49.5258 N.am    1  ZINC000980108339   -0.7200
     29 C29        -0.9047   -0.7154   48.5834 C.2     1  ZINC000980108339    0.7000
     30 O30        -0.6083   -1.8671   48.8359 O.2     1  ZINC000980108339   -0.5800
     31 H31        -0.3356   -1.9969   46.3877 H       1  ZINC000980108339    0.0900
     32 H32        -1.4530   -0.9721   45.4552 H       1  ZINC000980108339    0.0600
     33 H33         0.2556   -0.5021   45.6233 H       1  ZINC000980108339    0.0600
     34 H34        -0.5232    1.8291   46.9934 H       1  ZINC000980108339    0.1000
     35 H35        -2.2421    1.3486   46.8291 H       1  ZINC000980108339    0.0900
     36 H36        -3.2279    0.6350   50.7182 H       1  ZINC000980108339    0.4000
     37 H37        -5.2977    2.5489   49.7818 H       1  ZINC000980108339    0.0700
     38 H38        -5.7027    0.8633   50.1854 H       1  ZINC000980108339    0.0700
     39 H39        -3.8131    3.6052   52.7069 H       1  ZINC000980108339    0.0800
     40 H40        -4.8345    4.1987   51.3264 H       1  ZINC000980108339    0.1000
     41 H41        -4.8038    2.9142   54.7417 H       1  ZINC000980108339    0.4000
     42 H42        -5.5997    1.9973   56.8219 H       1  ZINC000980108339    0.1000
     43 H43        -6.0674    3.6087   57.4159 H       1  ZINC000980108339    0.1000
     44 H44        -8.6057    4.1807   57.6645 H       1  ZINC000980108339    0.0900
     45 H45        -9.7986    2.7757   57.7317 H       1  ZINC000980108339    0.1000
     46 H46        -8.5462    0.3476   59.3336 H       1  ZINC000980108339    0.1000
     47 H47        -8.3897    0.5404   61.8584 H       1  ZINC000980108339    0.0900
     48 H48        -7.9533    2.3249   61.6948 H       1  ZINC000980108339    0.0900
     49 H49       -10.1616    2.7577   60.5242 H       1  ZINC000980108339    0.0900
     50 H50       -10.5979    0.9732   60.6876 H       1  ZINC000980108339    0.0900
     51 H51        -7.2016    2.9013   51.4159 H       1  ZINC000980108339    0.1000
     52 H52        -7.1710    1.7671   52.8351 H       1  ZINC000980108339    0.0800
     53 H53        -1.2794   -0.0015   50.4784 H       1  ZINC000980108339    0.4400
@<TRIPOS>BOND
     1     1     2    1
     2     1    31    1
     3     1    32    1
     4     1    33    1
     5     2    29   am
     6     2     3    1
     7     3     4    1
     8     3    34    1
     9     3    35    1
    10     4     5    1
    11     4     6    1
    12     4    28    1
    13     6     7    2
    14     6     8   am
    15     8     9    1
    16     8    36    1
    17     9    10    1
    18     9    37    1
    19     9    38    1
    20    10    11    1
    21    10    27    1
    22    10    12    1
    23    12    13    1
    24    12    39    1
    25    12    40    1
    26    13    14    1
    27    13    15    1
    28    13    27    1
    29    15    16   am
    30    15    41    1
    31    16    17    2
    32    16    18    1
    33    18    19    1
    34    18    42    1
    35    18    43    1
    36    19    20    1
    37    19    22    1
    38    19    21    1
    39    21    22    1
    40    21    44    1
    41    21    45    1
    42    22    23    1
    43    22    24    1
    44    24    26    1
    45    24    25    1
    46    24    46    1
    47    25    26    1
    48    25    47    1
    49    25    48    1
    50    26    49    1
    51    26    50    1
    52    27    51    1
    53    27    52    1
    54    28    29   am
    55    28    53    1
    56    29    30    2
@<TRIPOS>SUBSTRUCTURE
     1 ZINC000980108339        1 TEMP              0 ****  ****    0 ROOT


##########                                Name:    ZINC000533131987
##########                DOCK_Rotatable_Bonds:                  11
##########                         Heavy_Atoms:                  30
##########                    Molecular_Weight:             419.403
##########                DOCK_Rotatable_Bonds:                  11
##########                       Formal_Charge:                0.01
##########                     HBond_Acceptors:                   9
##########                        HBond_Donors:                   3
##########                         Heavy_Atoms:                  30
##########                          Grid_Score:          -35.411842
##########                     Grid_vdw_energy:          -34.398720
##########                      Grid_es_energy:           -1.013122
##########           Internal_energy_repulsive:           23.807968

@<TRIPOS>MOLECULE
ZINC000533131987
 50 52 1 0 0
SMALL
USER_CHARGES


@<TRIPOS>ATOM
      1 O1         -2.0130    0.3723   49.3828 O.2     1  ZINC000533131987   -0.5700
      2 C2         -2.1686    1.2176   48.5227 C.2     1  ZINC000533131987    0.7100
      3 N3         -1.5611    1.0824   47.3273 N.am    1  ZINC000533131987   -0.7400
      4 C4         -0.7086   -0.0799   47.0662 C.3     1  ZINC000533131987    0.1400
      5 C5          0.7595    0.3158   47.2363 C.3     1  ZINC000533131987   -0.0900
      6 H6          0.8198    1.2783   47.7445 H       1  ZINC000533131987    0.0900
      7 C7          1.4808   -0.7463   48.0685 C.3     1  ZINC000533131987    0.0800
      8 O8          1.1695   -0.5608   49.4508 O.3     1  ZINC000533131987   -0.5600
      9 C9          1.4217    0.4228   45.8611 C.3     1  ZINC000533131987   -0.0900
     10 C10         1.1870    1.8001   45.2964 C.ar    1  ZINC000533131987    0.0000
     11 C11         0.0276    2.0708   44.5943 C.ar    1  ZINC000533131987   -0.1100
     12 C12        -0.1876    3.3344   44.0762 C.ar    1  ZINC000533131987   -0.0800
     13 C13         0.7563    4.3270   44.2608 C.ar    1  ZINC000533131987   -0.1300
     14 C14         1.9156    4.0565   44.9638 C.ar    1  ZINC000533131987   -0.0700
     15 C15         2.1289    2.7944   45.4854 C.ar    1  ZINC000533131987   -0.1700
     16 C16         3.3925    2.4996   46.2518 C.3     1  ZINC000533131987    0.5100
     17 F17         4.1239    3.6805   46.4172 F       1  ZINC000533131987   -0.1800
     18 F18         3.0651    1.9742   47.5065 F       1  ZINC000533131987   -0.1700
     19 F19         4.1615    1.5700   45.5433 F       1  ZINC000533131987   -0.1800
     20 N20        -2.9530    2.2869   48.7630 N.am    1  ZINC000533131987   -0.6900
     21 C21        -3.5839    2.4273   50.0045 C.ar    1  ZINC000533131987    0.1600
     22 C22        -3.0280    3.2493   50.9772 C.ar    1  ZINC000533131987   -0.1000
     23 C23        -3.6473    3.3914   52.2051 C.ar    1  ZINC000533131987   -0.1000
     24 C24        -4.8214    2.7180   52.4728 C.ar    1  ZINC000533131987   -0.1000
     25 C25        -5.3879    1.8896   51.5021 C.ar    1  ZINC000533131987    0.0000
     26 C26        -6.6461    1.1672   51.7861 C.2     1  ZINC000533131987    0.2300
     27 N27        -6.9169   -0.0675   51.4341 N.2     1  ZINC000533131987   -0.4700
     28 C28        -8.1490   -0.3763   51.8658 C.2     1  ZINC000533131987   -0.0400
     29 C29        -8.6456    0.7014   52.5002 C.2     1  ZINC000533131987   -0.0700
     30 O30        -7.7025    1.6630   52.4535 O.3     1  ZINC000533131987   -0.2000
     31 C31        -4.7663    1.7508   50.2616 C.ar    1  ZINC000533131987   -0.1000
     32 H32        -1.6885    1.7548   46.6398 H       1  ZINC000533131987    0.4000
     33 H33        -0.9542   -0.8759   47.7692 H       1  ZINC000533131987    0.0700
     34 H34        -0.8746   -0.4309   46.0476 H       1  ZINC000533131987    0.0800
     35 H35         1.1559   -1.7377   47.7527 H       1  ZINC000533131987    0.0400
     36 H36         2.5569   -0.6531   47.9228 H       1  ZINC000533131987    0.0600
     37 H37         1.4495   -1.2919   50.0186 H       1  ZINC000533131987    0.3800
     38 H38         2.4931    0.2480   45.9593 H       1  ZINC000533131987    0.0800
     39 H39         0.9917   -0.3225   45.1919 H       1  ZINC000533131987    0.0900
     40 H40        -0.7099    1.2951   44.4502 H       1  ZINC000533131987    0.1300
     41 H41        -1.0933    3.5457   43.5270 H       1  ZINC000533131987    0.1300
     42 H42         0.5885    5.3139   43.8553 H       1  ZINC000533131987    0.1300
     43 H43         2.6533    4.8320   45.1077 H       1  ZINC000533131987    0.1300
     44 H44        -3.0803    2.9593   48.0755 H       1  ZINC000533131987    0.4100
     45 H45        -2.1090    3.7787   50.7734 H       1  ZINC000533131987    0.1500
     46 H46        -3.2104    4.0314   52.9573 H       1  ZINC000533131987    0.1400
     47 H47        -5.3019    2.8312   53.4334 H       1  ZINC000533131987    0.1300
     48 H48        -8.6527   -1.3217   51.7285 H       1  ZINC000533131987    0.1900
     49 H49        -9.6176    0.7798   52.9641 H       1  ZINC000533131987    0.2200
     50 H50        -5.1998    1.1115   49.5069 H       1  ZINC000533131987    0.1400
@<TRIPOS>BOND
     1     1     2    2
     2     2     3   am
     3     2    20   am
     4     3     4    1
     5     3    32    1
     6     4     5    1
     7     4    33    1
     8     4    34    1
     9     5     6    1
    10     5     7    1
    11     5     9    1
    12     7     8    1
    13     7    35    1
    14     7    36    1
    15     8    37    1
    16     9    10    1
    17     9    38    1
    18     9    39    1
    19    10    15   ar
    20    10    11   ar
    21    11    12   ar
    22    11    40    1
    23    12    13   ar
    24    12    41    1
    25    13    14   ar
    26    13    42    1
    27    14    15   ar
    28    14    43    1
    29    15    16    1
    30    16    17    1
    31    16    18    1
    32    16    19    1
    33    20    21    1
    34    20    44    1
    35    21    31   ar
    36    21    22   ar
    37    22    23   ar
    38    22    45    1
    39    23    24   ar
    40    23    46    1
    41    24    25   ar
    42    24    47    1
    43    25    26    1
    44    25    31   ar
    45    26    30    1
    46    26    27    2
    47    27    28    1
    48    28    29    2
    49    28    48    1
    50    29    30    1
    51    29    49    1
    52    31    50    1
@<TRIPOS>SUBSTRUCTURE
     1 ZINC000533131987        1 TEMP              0 ****  ****    0 ROOT


##########                                Name:    ZINC000671418508
##########                DOCK_Rotatable_Bonds:                   9
##########                         Heavy_Atoms:                  28
##########                    Molecular_Weight:             405.884
##########                DOCK_Rotatable_Bonds:                   9
##########                       Formal_Charge:         -1.3411e-07
##########                     HBond_Acceptors:                   9
##########                        HBond_Donors:                   2
##########                         Heavy_Atoms:                  28
##########                          Grid_Score:          -35.407875
##########                     Grid_vdw_energy:          -33.008640
##########                      Grid_es_energy:           -2.399233
##########           Internal_energy_repulsive:           18.582401

@<TRIPOS>MOLECULE
ZINC000671418508
 52 54 1 0 0
SMALL
USER_CHARGES


@<TRIPOS>ATOM
      1 C1         -9.1370    1.8676   59.3112 C.3     1  ZINC000671418508    0.1000
      2 N2         -8.5787    2.1548   57.9874 N.pl3   1  ZINC000671418508   -0.3700
      3 C3         -7.3905    2.7438   57.7377 C.2     1  ZINC000671418508    0.0800
      4 C4         -7.2456    2.8270   56.3949 C.2     1  ZINC000671418508   -0.2700
      5 C5         -6.0655    3.4154   55.6652 C.3     1  ZINC000671418508    0.2000
      6 N6         -5.8100    2.6428   54.4470 N.am    1  ZINC000671418508   -0.6900
      7 C7         -6.4613    2.9472   53.3070 C.2     1  ZINC000671418508    0.5100
      8 O8         -7.2604    3.8603   53.2900 O.2     1  ZINC000671418508   -0.5100
      9 C9         -6.1994    2.1602   52.0639 C.2     1  ZINC000671418508    0.5100
     10 O10        -6.8542    1.1668   51.8252 O.2     1  ZINC000671418508   -0.5200
     11 N11        -5.2356    2.5537   51.2077 N.am    1  ZINC000671418508   -0.5800
     12 C12        -4.4262    3.7510   51.4807 C.3     1  ZINC000671418508    0.0800
     13 C13        -2.9457    3.3775   51.3517 C.3     1  ZINC000671418508    0.0400
     14 N14        -2.7131    2.7562   50.0410 N.3     1  ZINC000671418508   -0.5200
     15 C15        -1.2790    2.5398   49.8081 C.3     1  ZINC000671418508    0.1300
     16 H16        -0.8560    1.9792   50.6417 H       1  ZINC000671418508    0.0600
     17 C17        -0.5716    3.8915   49.6914 C.3     1  ZINC000671418508    0.0900
     18 O18         0.3732    4.0279   50.7547 O.3     1  ZINC000671418508   -0.5500
     19 C19        -1.0893    1.7617   48.5316 C.ar    1  ZINC000671418508   -0.0800
     20 C20        -0.6580    0.4492   48.5800 C.ar    1  ZINC000671418508   -0.0600
     21 C21        -0.4838   -0.2650   47.4095 C.ar    1  ZINC000671418508   -0.1200
     22 C22        -0.7411    0.3340   46.1892 C.ar    1  ZINC000671418508   -0.0300
     23 Cl23       -0.5230   -0.5624   44.7187 Cl      1  ZINC000671418508   -0.0700
     24 C24        -1.1727    1.6476   46.1413 C.ar    1  ZINC000671418508   -0.1200
     25 C25        -1.3520    2.3590   47.3128 C.ar    1  ZINC000671418508   -0.1100
     26 C26        -3.4638    1.5007   49.9058 C.3     1  ZINC000671418508    0.0400
     27 C27        -4.9614    1.7939   49.9786 C.3     1  ZINC000671418508    0.1100
     28 C28        -8.3841    2.2698   55.8038 C.2     1  ZINC000671418508    0.0700
     29 N29        -9.1813    1.8610   56.7575 N.2     1  ZINC000671418508   -0.2900
     30 H30        -8.8162    0.8769   59.6336 H       1  ZINC000671418508    0.0800
     31 H31        -8.7846    2.6135   60.0237 H       1  ZINC000671418508    0.0900
     32 H32       -10.2253    1.8986   59.2610 H       1  ZINC000671418508    0.0900
     33 H33        -6.6823    3.0876   58.4771 H       1  ZINC000671418508    0.1800
     34 H34        -6.2813    4.4505   55.4005 H       1  ZINC000671418508    0.0800
     35 H35        -5.1864    3.3806   56.3087 H       1  ZINC000671418508    0.0800
     36 H36        -5.1722    1.9121   54.4609 H       1  ZINC000671418508    0.4100
     37 H37        -4.6713    4.5309   50.7597 H       1  ZINC000671418508    0.0800
     38 H38        -4.6275    4.1064   52.4913 H       1  ZINC000671418508    0.1400
     39 H39        -2.3348    4.2757   51.4420 H       1  ZINC000671418508    0.0900
     40 H40        -2.6779    2.6742   52.1403 H       1  ZINC000671418508    0.0400
     41 H41        -0.0526    3.9485   48.7346 H       1  ZINC000671418508    0.0500
     42 H42        -1.3074    4.6932   49.7541 H       1  ZINC000671418508    0.0500
     43 H43        -0.0123    4.3366   51.5862 H       1  ZINC000671418508    0.3800
     44 H44        -0.4568   -0.0182   49.5326 H       1  ZINC000671418508    0.1400
     45 H45        -0.1465   -1.2902   47.4475 H       1  ZINC000671418508    0.1300
     46 H46        -1.3734    2.1158   45.1890 H       1  ZINC000671418508    0.1300
     47 H47        -1.6893    3.3843   47.2756 H       1  ZINC000671418508    0.1300
     48 H48        -3.2285    1.0377   48.9475 H       1  ZINC000671418508    0.0900
     49 H49        -3.1888    0.8236   50.7145 H       1  ZINC000671418508    0.0400
     50 H50        -5.5177    0.8565   49.9939 H       1  ZINC000671418508    0.1000
     51 H51        -5.2610    2.3865   49.1142 H       1  ZINC000671418508    0.0800
     52 H52        -8.5709    2.1867   54.7433 H       1  ZINC000671418508    0.1900
@<TRIPOS>BOND
     1     1     2    1
     2     1    30    1
     3     1    31    1
     4     1    32    1
     5     2    29    1
     6     2     3    1
     7     3     4    2
     8     3    33    1
     9     4     5    1
    10     4    28    1
    11     5     6    1
    12     5    34    1
    13     5    35    1
    14     6     7   am
    15     6    36    1
    16     7     8    2
    17     7     9    1
    18     9    10    2
    19     9    11   am
    20    11    27    1
    21    11    12    1
    22    12    13    1
    23    12    37    1
    24    12    38    1
    25    13    14    1
    26    13    39    1
    27    13    40    1
    28    14    15    1
    29    14    26    1
    30    15    16    1
    31    15    17    1
    32    15    19    1
    33    17    18    1
    34    17    41    1
    35    17    42    1
    36    18    43    1
    37    19    25   ar
    38    19    20   ar
    39    20    21   ar
    40    20    44    1
    41    21    22   ar
    42    21    45    1
    43    22    23    1
    44    22    24   ar
    45    24    25   ar
    46    24    46    1
    47    25    47    1
    48    26    27    1
    49    26    48    1
    50    26    49    1
    51    27    50    1
    52    27    51    1
    53    28    29    2
    54    28    52    1
@<TRIPOS>SUBSTRUCTURE
     1 ZINC000671418508        1 TEMP              0 ****  ****    0 ROOT


##########                                Name:    ZINC000467185792
##########                DOCK_Rotatable_Bonds:                   9
##########                         Heavy_Atoms:                  29
##########                    Molecular_Weight:             412.513
##########                DOCK_Rotatable_Bonds:                   9
##########                       Formal_Charge:                0.04
##########                     HBond_Acceptors:                   8
##########                        HBond_Donors:                   2
##########                         Heavy_Atoms:                  29
##########                          Grid_Score:          -35.372066
##########                     Grid_vdw_energy:          -36.498989
##########                      Grid_es_energy:            1.126922
##########           Internal_energy_repulsive:           21.276953

@<TRIPOS>MOLECULE
ZINC000467185792
 53 55 1 0 0
SMALL
USER_CHARGES


@<TRIPOS>ATOM
      1 C1        -12.8352    0.1424   50.8663 C.3     1  ZINC000467185792   -0.1500
      2 C2        -11.9135    0.7048   51.9503 C.3     1  ZINC000467185792   -0.1200
      3 C3        -11.4090   -0.4379   52.8339 C.3     1  ZINC000467185792    0.0600
      4 O4        -10.3963    0.0526   53.7148 O.3     1  ZINC000467185792   -0.3100
      5 C5         -9.2557    0.5217   53.1434 C.ar    1  ZINC000467185792    0.1400
      6 C6         -8.7229    1.7352   53.5562 C.ar    1  ZINC000467185792   -0.2100
      7 C7         -7.5653    2.2138   52.9787 C.ar    1  ZINC000467185792   -0.0400
      8 C8         -6.9305    1.4775   51.9796 C.ar    1  ZINC000467185792   -0.0600
      9 C9         -5.6852    1.9891   51.3568 C.2     1  ZINC000467185792    0.1400
     10 C10        -5.0940    3.1272   51.7619 C.2     1  ZINC000467185792   -0.3000
     11 S11        -3.6542    3.3805   50.7781 S.3     1  ZINC000467185792    0.2000
     12 C12        -3.9951    1.8949   49.8958 C.2     1  ZINC000467185792    0.2800
     13 N13        -3.2248    1.3812   48.8615 N.am    1  ZINC000467185792   -0.6100
     14 C14        -1.8892    1.2714   49.0061 C.2     1  ZINC000467185792    0.5900
     15 O15        -1.3591    1.6225   50.0428 O.2     1  ZINC000467185792   -0.4900
     16 C16        -1.0716    0.7260   47.9082 C.2     1  ZINC000467185792   -0.2400
     17 C17        -0.5597    1.5505   46.9083 C.2     1  ZINC000467185792    0.0800
     18 C18        -0.8246    3.0340   46.9146 C.3     1  ZINC000467185792   -0.1200
     19 C19         0.2249    3.7359   47.7789 C.3     1  ZINC000467185792   -0.1400
     20 C20         0.2085    0.9595   45.8977 C.2     1  ZINC000467185792    0.0600
     21 C21         0.7811    1.8159   44.7977 C.3     1  ZINC000467185792   -0.0600
     22 C22         1.7060    0.9689   43.9212 C.3     1  ZINC000467185792   -0.1500
     23 N23         0.4334   -0.3262   45.9001 N.2     1  ZINC000467185792   -0.1800
     24 N24        -0.0222   -1.1133   46.8045 N.am    1  ZINC000467185792   -0.4300
     25 C25        -0.7689   -0.6628   47.8308 C.2     1  ZINC000467185792    0.5000
     26 O26        -1.1884   -1.4348   48.6758 O.2     1  ZINC000467185792   -0.5300
     27 N27        -5.0754    1.3531   50.3666 N.2     1  ZINC000467185792   -0.5000
     28 C28        -7.4683    0.2593   51.5674 C.ar    1  ZINC000467185792   -0.0600
     29 C29        -8.6232   -0.2163   52.1525 C.ar    1  ZINC000467185792   -0.1500
     30 H30       -13.6835   -0.3572   51.3340 H       1  ZINC000467185792    0.0600
     31 H31       -13.1947    0.9563   50.2369 H       1  ZINC000467185792    0.0700
     32 H32       -12.2839   -0.5728   50.2558 H       1  ZINC000467185792    0.0600
     33 H33       -11.0651    1.2043   51.4827 H       1  ZINC000467185792    0.0700
     34 H34       -12.4649    1.4199   52.5608 H       1  ZINC000467185792    0.0700
     35 H35       -12.2371   -0.8376   53.4192 H       1  ZINC000467185792    0.0600
     36 H36       -10.9937   -1.2264   52.2063 H       1  ZINC000467185792    0.0600
     37 H37        -9.2153    2.3053   54.3300 H       1  ZINC000467185792    0.1300
     38 H38        -7.1513    3.1582   53.3000 H       1  ZINC000467185792    0.1300
     39 H39        -5.4419    3.7745   52.5534 H       1  ZINC000467185792    0.1800
     40 H40        -3.6476    1.1011   48.0346 H       1  ZINC000467185792    0.4400
     41 H41        -0.7711    3.4170   45.8955 H       1  ZINC000467185792    0.0900
     42 H42        -1.8174    3.2241   47.3225 H       1  ZINC000467185792    0.1300
     43 H43         0.1714    3.3529   48.7980 H       1  ZINC000467185792    0.0600
     44 H44         1.2177    3.5457   47.3709 H       1  ZINC000467185792    0.0600
     45 H45         0.0333    4.8089   47.7834 H       1  ZINC000467185792    0.0700
     46 H46        -0.0299    2.2161   44.1893 H       1  ZINC000467185792    0.1000
     47 H47         1.3475    2.6382   45.2349 H       1  ZINC000467185792    0.1000
     48 H48         2.1202    1.5882   43.1256 H       1  ZINC000467185792    0.0600
     49 H49         2.5170    0.5686   44.5296 H       1  ZINC000467185792    0.0600
     50 H50         1.1397    0.1466   43.4840 H       1  ZINC000467185792    0.0600
     51 H51         0.1804   -2.0604   46.7499 H       1  ZINC000467185792    0.4500
     52 H52        -6.9790   -0.3133   50.7934 H       1  ZINC000467185792    0.1300
     53 H53        -9.0401   -1.1602   51.8338 H       1  ZINC000467185792    0.1400
@<TRIPOS>BOND
     1     1     2    1
     2     1    30    1
     3     1    31    1
     4     1    32    1
     5     2     3    1
     6     2    33    1
     7     2    34    1
     8     3     4    1
     9     3    35    1
    10     3    36    1
    11     4     5    1
    12     5    29   ar
    13     5     6   ar
    14     6     7   ar
    15     6    37    1
    16     7     8   ar
    17     7    38    1
    18     8     9    1
    19     8    28   ar
    20     9    27    1
    21     9    10    2
    22    10    11    1
    23    10    39    1
    24    11    12    1
    25    12    13    1
    26    12    27    2
    27    13    14   am
    28    13    40    1
    29    14    15    2
    30    14    16    1
    31    16    25    1
    32    16    17    2
    33    17    18    1
    34    17    20    1
    35    18    19    1
    36    18    41    1
    37    18    42    1
    38    19    43    1
    39    19    44    1
    40    19    45    1
    41    20    21    1
    42    20    23    2
    43    21    22    1
    44    21    46    1
    45    21    47    1
    46    22    48    1
    47    22    49    1
    48    22    50    1
    49    23    24    1
    50    24    25   am
    51    24    51    1
    52    25    26    2
    53    28    29   ar
    54    28    52    1
    55    29    53    1
@<TRIPOS>SUBSTRUCTURE
     1 ZINC000467185792        1 TEMP              0 ****  ****    0 ROOT


##########                                Name:    ZINC000537799672
##########                DOCK_Rotatable_Bonds:                   9
##########                         Heavy_Atoms:                  29
##########                    Molecular_Weight:             401.478
##########                DOCK_Rotatable_Bonds:                   9
##########                       Formal_Charge:        -4.47035e-07
##########                     HBond_Acceptors:                   6
##########                        HBond_Donors:                   1
##########                         Heavy_Atoms:                  29
##########                          Grid_Score:          -35.347687
##########                     Grid_vdw_energy:          -34.424248
##########                      Grid_es_energy:           -0.923440
##########           Internal_energy_repulsive:           19.079189

@<TRIPOS>MOLECULE
ZINC000537799672
 57 59 1 0 0
SMALL
USER_CHARGES


@<TRIPOS>ATOM
      1 C1         -7.7908    4.6942   50.5284 C.3     1  ZINC000537799672    0.0300
      2 O2         -7.1754    3.4147   50.3660 O.3     1  ZINC000537799672   -0.3800
      3 C3         -5.7984    3.3796   50.7460 C.3     1  ZINC000537799672    0.1200
      4 H4         -5.2607    4.1802   50.2381 H       1  ZINC000537799672    0.0900
      5 C5         -5.6839    3.5648   52.2372 C.ar    1  ZINC000537799672   -0.1300
      6 C6         -4.5732    4.1902   52.7723 C.ar    1  ZINC000537799672   -0.0600
      7 C7         -4.4671    4.3607   54.1396 C.ar    1  ZINC000537799672   -0.1500
      8 C8         -5.4739    3.9049   54.9737 C.ar    1  ZINC000537799672    0.1000
      9 F9         -5.3714    4.0713   56.3105 F       1  ZINC000537799672   -0.1400
     10 C10        -6.5861    3.2790   54.4366 C.ar    1  ZINC000537799672   -0.1500
     11 C11        -6.6923    3.1141   53.0687 C.ar    1  ZINC000537799672   -0.0800
     12 C12        -5.1947    2.0300   50.3521 C.3     1  ZINC000537799672    0.1600
     13 H13        -5.3716    1.8484   49.2920 H       1  ZINC000537799672    0.1000
     14 C14        -5.8486    0.9189   51.1760 C.3     1  ZINC000537799672   -0.1600
     15 N15        -3.7528    2.0457   50.6109 N.am    1  ZINC000537799672   -0.7100
     16 C16        -2.8983    2.4268   49.6410 C.2     1  ZINC000537799672    0.5600
     17 O17        -3.3238    2.7588   48.5519 O.2     1  ZINC000537799672   -0.5400
     18 C18        -1.4430    2.4411   49.9017 C.ar    1  ZINC000537799672   -0.1400
     19 C19        -0.8406    3.5735   50.4517 C.ar    1  ZINC000537799672   -0.0800
     20 C20         0.5179    3.5801   50.6929 C.ar    1  ZINC000537799672   -0.1300
     21 C21         1.2827    2.4677   50.3905 C.ar    1  ZINC000537799672   -0.0900
     22 C22         0.6917    1.3418   49.8446 C.ar    1  ZINC000537799672   -0.1100
     23 C23        -0.6665    1.3199   49.6042 C.ar    1  ZINC000537799672   -0.0300
     24 C24        -1.3085    0.0927   49.0100 C.3     1  ZINC000537799672    0.1100
     25 O25        -1.6825    0.3586   47.6567 O.3     1  ZINC000537799672   -0.3800
     26 C26        -0.5752    0.5749   46.7796 C.3     1  ZINC000537799672    0.0900
     27 C27        -0.6809   -0.3696   45.5783 C.3     1  ZINC000537799672   -0.1800
     28 C28         0.4649   -0.0766   44.6063 C.3     1  ZINC000537799672    0.0600
     29 O29         0.4087    1.2936   44.2047 O.3     1  ZINC000537799672   -0.3800
     30 C30         0.5499    2.2233   45.2808 C.3     1  ZINC000537799672    0.0600
     31 C31        -0.5926    2.0228   46.2800 C.3     1  ZINC000537799672   -0.1500
     32 H32        -7.2233    5.4429   49.9759 H       1  ZINC000537799672    0.0500
     33 H33        -8.8113    4.6575   50.1473 H       1  ZINC000537799672    0.0900
     34 H34        -7.8071    4.9579   51.5859 H       1  ZINC000537799672    0.0400
     35 H35        -3.7880    4.5456   52.1215 H       1  ZINC000537799672    0.1300
     36 H36        -3.5989    4.8487   54.5574 H       1  ZINC000537799672    0.1400
     37 H37        -7.3719    2.9229   55.0864 H       1  ZINC000537799672    0.1400
     38 H38        -7.5599    2.6262   52.6495 H       1  ZINC000537799672    0.1300
     39 H39        -6.9310    0.9671   51.0567 H       1  ZINC000537799672    0.0700
     40 H40        -5.4878   -0.0499   50.8306 H       1  ZINC000537799672    0.0600
     41 H41        -5.5929    1.0479   52.2277 H       1  ZINC000537799672    0.0700
     42 H42        -3.4133    1.7819   51.4804 H       1  ZINC000537799672    0.4000
     43 H43        -1.4364    4.4428   50.6876 H       1  ZINC000537799672    0.1300
     44 H44         0.9853    4.4558   51.1186 H       1  ZINC000537799672    0.1300
     45 H45         2.3457    2.4782   50.5810 H       1  ZINC000537799672    0.1300
     46 H46         1.2943    0.4768   49.6104 H       1  ZINC000537799672    0.1400
     47 H47        -0.6008   -0.7360   49.0354 H       1  ZINC000537799672    0.0800
     48 H48        -2.1952   -0.1690   49.5874 H       1  ZINC000537799672    0.0800
     49 H49         0.3557    0.3847   47.3139 H       1  ZINC000537799672    0.0600
     50 H50        -0.6137   -1.4024   45.9200 H       1  ZINC000537799672    0.0800
     51 H51        -1.6348   -0.2129   45.0747 H       1  ZINC000537799672    0.0800
     52 H52         1.4178   -0.2724   45.0981 H       1  ZINC000537799672    0.0500
     53 H53         0.3702   -0.7167   43.7292 H       1  ZINC000537799672    0.1000
     54 H54         1.5039    2.0576   45.7815 H       1  ZINC000537799672    0.0500
     55 H55         0.5164    3.2401   44.8896 H       1  ZINC000537799672    0.1000
     56 H56        -1.5446    2.2277   45.7904 H       1  ZINC000537799672    0.0800
     57 H57        -0.4621    2.7008   47.1234 H       1  ZINC000537799672    0.0800
@<TRIPOS>BOND
     1     1     2    1
     2     1    32    1
     3     1    33    1
     4     1    34    1
     5     2     3    1
     6     3     4    1
     7     3     5    1
     8     3    12    1
     9     5    11   ar
    10     5     6   ar
    11     6     7   ar
    12     6    35    1
    13     7     8   ar
    14     7    36    1
    15     8     9    1
    16     8    10   ar
    17    10    11   ar
    18    10    37    1
    19    11    38    1
    20    12    13    1
    21    12    14    1
    22    12    15    1
    23    14    39    1
    24    14    40    1
    25    14    41    1
    26    15    16   am
    27    15    42    1
    28    16    17    2
    29    16    18    1
    30    18    23   ar
    31    18    19   ar
    32    19    20   ar
    33    19    43    1
    34    20    21   ar
    35    20    44    1
    36    21    22   ar
    37    21    45    1
    38    22    23   ar
    39    22    46    1
    40    23    24    1
    41    24    25    1
    42    24    47    1
    43    24    48    1
    44    25    26    1
    45    26    31    1
    46    26    27    1
    47    26    49    1
    48    27    28    1
    49    27    50    1
    50    27    51    1
    51    28    29    1
    52    28    52    1
    53    28    53    1
    54    29    30    1
    55    30    31    1
    56    30    54    1
    57    30    55    1
    58    31    56    1
    59    31    57    1
@<TRIPOS>SUBSTRUCTURE
     1 ZINC000537799672        1 TEMP              0 ****  ****    0 ROOT


##########                                Name:    ZINC000788423111
##########                DOCK_Rotatable_Bonds:                   7
##########                         Heavy_Atoms:                  23
##########                    Molecular_Weight:             399.243
##########                DOCK_Rotatable_Bonds:                   7
##########                       Formal_Charge:         1.04308e-07
##########                     HBond_Acceptors:                   8
##########                        HBond_Donors:                   1
##########                         Heavy_Atoms:                  23
##########                          Grid_Score:          -35.337463
##########                     Grid_vdw_energy:          -34.907429
##########                      Grid_es_energy:           -0.430035
##########           Internal_energy_repulsive:            5.509464

@<TRIPOS>MOLECULE
ZINC000788423111
 35 37 1 0 0
SMALL
USER_CHARGES


@<TRIPOS>ATOM
      1 O1         -6.3002    3.5450   50.3964 O.3     1  ZINC000788423111   -0.5400
      2 C2         -4.9461    3.1548   50.6338 C.3     1  ZINC000788423111    0.1000
      3 H3         -4.3450    4.0391   50.8457 H       1  ZINC000788423111    0.1300
      4 C4         -4.3943    2.4482   49.3941 C.3     1  ZINC000788423111    0.0300
      5 O5         -2.9802    2.6427   49.3248 O.3     1  ZINC000788423111   -0.2900
      6 C6         -2.2652    1.7262   48.6209 C.ar    1  ZINC000788423111    0.1700
      7 C7         -2.1063    0.4406   49.1158 C.ar    1  ZINC000788423111   -0.2400
      8 C8         -1.3776   -0.4911   48.3974 C.ar    1  ZINC000788423111    0.1500
      9 F9         -1.2221   -1.7439   48.8786 F       1  ZINC000788423111   -0.1300
     10 C10        -0.8082   -0.1397   47.1852 C.ar    1  ZINC000788423111   -0.1600
     11 C11        -0.9659    1.1427   46.6910 C.ar    1  ZINC000788423111   -0.0300
     12 Br12       -0.1869    1.6195   45.0351 Br      1  ZINC000788423111   -0.0200
     13 C13        -1.6978    2.0741   47.4033 C.ar    1  ZINC000788423111   -0.1300
     14 C14        -4.8919    2.2026   51.8301 C.3     1  ZINC000788423111    0.1000
     15 N15        -6.0608    1.3200   51.8051 N.pl3   1  ZINC000788423111   -0.1300
     16 N16        -6.0903    0.1384   51.2952 N.2     1  ZINC000788423111   -0.0500
     17 N17        -7.2729   -0.3543   51.4456 N.2     1  ZINC000788423111   -0.2600
     18 C18        -8.0111    0.5693   52.0804 C.2     1  ZINC000788423111    0.2400
     19 C19        -9.4332    0.4497   52.4693 C.2     1  ZINC000788423111   -0.1300
     20 C20       -10.1734    1.4300   53.0228 C.2     1  ZINC000788423111   -0.0800
     21 C21       -11.4794    1.0806   53.2993 C.2     1  ZINC000788423111   -0.1400
     22 C22       -11.8102   -0.1730   52.9769 C.2     1  ZINC000788423111   -0.2000
     23 S23       -10.4218   -0.9919   52.2736 S.3     1  ZINC000788423111    0.1700
     24 N24        -7.2188    1.6029   52.2950 N.2     1  ZINC000788423111   -0.2900
     25 H25        -6.3988    4.2369   49.7281 H       1  ZINC000788423111    0.3800
     26 H26        -4.6116    1.3819   49.4567 H       1  ZINC000788423111    0.0900
     27 H27        -4.8622    2.8625   48.5011 H       1  ZINC000788423111    0.0800
     28 H28        -2.5505    0.1668   50.0614 H       1  ZINC000788423111    0.1500
     29 H29        -0.2400   -0.8676   46.6250 H       1  ZINC000788423111    0.1500
     30 H30        -1.8207    3.0750   47.0166 H       1  ZINC000788423111    0.1500
     31 H31        -3.9830    1.6034   51.7767 H       1  ZINC000788423111    0.1300
     32 H32        -4.8925    2.7803   52.7545 H       1  ZINC000788423111    0.1300
     33 H33        -9.7759    2.4116   53.2340 H       1  ZINC000788423111    0.1500
     34 H34       -12.1822    1.7697   53.7439 H       1  ZINC000788423111    0.1500
     35 H35       -12.7847   -0.6154   53.1220 H       1  ZINC000788423111    0.1700
@<TRIPOS>BOND
     1     1     2    1
     2     1    25    1
     3     2     3    1
     4     2     4    1
     5     2    14    1
     6     4     5    1
     7     4    26    1
     8     4    27    1
     9     5     6    1
    10     6    13   ar
    11     6     7   ar
    12     7     8   ar
    13     7    28    1
    14     8     9    1
    15     8    10   ar
    16    10    11   ar
    17    10    29    1
    18    11    12    1
    19    11    13   ar
    20    13    30    1
    21    14    15    1
    22    14    31    1
    23    14    32    1
    24    15    24    1
    25    15    16    1
    26    16    17    2
    27    17    18    1
    28    18    19    1
    29    18    24    2
    30    19    23    1
    31    19    20    2
    32    20    21    1
    33    20    33    1
    34    21    22    2
    35    21    34    1
    36    22    23    1
    37    22    35    1
@<TRIPOS>SUBSTRUCTURE
     1 ZINC000788423111        1 TEMP              0 ****  ****    0 ROOT


##########                                Name:    ZINC000033150761
##########                DOCK_Rotatable_Bonds:                   7
##########                         Heavy_Atoms:                  29
##########                    Molecular_Weight:             413.407
##########                DOCK_Rotatable_Bonds:                   7
##########                       Formal_Charge:          0.00999993
##########                     HBond_Acceptors:                  10
##########                        HBond_Donors:                   1
##########                         Heavy_Atoms:                  29
##########                          Grid_Score:          -35.280266
##########                     Grid_vdw_energy:          -34.236809
##########                      Grid_es_energy:           -1.043458
##########           Internal_energy_repulsive:            4.201232

@<TRIPOS>MOLECULE
ZINC000033150761
 42 45 1 0 0
SMALL
USER_CHARGES


@<TRIPOS>ATOM
      1 O1         -8.1223   -0.5802   51.8219 O.2     1  ZINC000033150761   -0.5000
      2 C2         -8.0381    0.5897   52.1305 C.2     1  ZINC000033150761    0.5200
      3 C3         -6.7254    1.3151   51.9836 C.3     1  ZINC000033150761   -0.1300
      4 C4         -5.9652    0.7551   50.7797 C.3     1  ZINC000033150761   -0.0100
      5 C5         -4.6635    1.4971   50.6181 C.2     1  ZINC000033150761    0.1800
      6 N6         -4.0081    1.6839   49.4997 N.2     1  ZINC000033150761   -0.4400
      7 C7         -2.9092    2.3956   49.8373 C.2     1  ZINC000033150761    0.2200
      8 C8         -1.8431    2.8615   48.9147 C.ar    1  ZINC000033150761    0.1900
      9 C9         -0.7648    3.5855   49.4156 C.ar    1  ZINC000033150761   -0.1300
     10 C10         0.2222    4.0134   48.5431 C.ar    1  ZINC000033150761   -0.0700
     11 C11         0.0963    3.7020   47.1976 C.ar    1  ZINC000033150761   -0.1500
     12 C12        -1.0025    2.9786   46.7687 C.ar    1  ZINC000033150761    0.1100
     13 N13        -1.9235    2.5795   47.6211 N.ar    1  ZINC000033150761   -0.4500
     14 N14        -2.9612    2.5973   51.1278 N.2     1  ZINC000033150761   -0.3600
     15 O15        -3.9637    2.0933   51.5884 O.3     1  ZINC000033150761    0.0900
     16 N16        -9.1200    1.2425   52.5995 N.am    1  ZINC000033150761   -0.6200
     17 C17       -10.3304    0.5736   52.7349 C.2     1  ZINC000033150761    0.2700
     18 N18       -10.7258   -0.0519   53.7996 N.2     1  ZINC000033150761   -0.5000
     19 C19       -11.9150   -0.6354   53.7481 C.2     1  ZINC000033150761    0.1200
     20 C20       -12.4824   -1.3815   54.8978 C.ar    1  ZINC000033150761    0.0000
     21 C21       -13.8354   -1.2616   55.2093 C.ar    1  ZINC000033150761   -0.0800
     22 C22       -14.3603   -1.9576   56.2795 C.ar    1  ZINC000033150761   -0.1200
     23 C23       -13.5452   -2.7747   57.0442 C.ar    1  ZINC000033150761    0.0700
     24 F24       -14.0635   -3.4539   58.0907 F       1  ZINC000033150761   -0.1300
     25 C25       -12.1972   -2.8983   56.7384 C.ar    1  ZINC000033150761    0.0700
     26 F26       -11.4058   -3.6973   57.4871 F       1  ZINC000033150761   -0.1300
     27 C27       -11.6649   -2.2090   55.6660 C.ar    1  ZINC000033150761   -0.1000
     28 C28       -12.5716   -0.5041   52.5817 C.2     1  ZINC000033150761   -0.2800
     29 S29       -11.5696    0.4494   51.4899 S.3     1  ZINC000033150761    0.2200
     30 H30        -6.9127    2.3783   51.8325 H       1  ZINC000033150761    0.1200
     31 H31        -6.1302    1.1757   52.8860 H       1  ZINC000033150761    0.1200
     32 H32        -5.7624   -0.3040   50.9386 H       1  ZINC000033150761    0.1300
     33 H33        -6.5679    0.8786   49.8799 H       1  ZINC000033150761    0.1200
     34 H34        -0.6989    3.8107   50.4698 H       1  ZINC000033150761    0.1400
     35 H35         1.0703    4.5772   48.9024 H       1  ZINC000033150761    0.1500
     36 H36         0.8484    4.0212   46.4912 H       1  ZINC000033150761    0.1400
     37 H37        -1.1039    2.7342   45.7217 H       1  ZINC000033150761    0.1700
     38 H38        -9.0536    2.1792   52.8425 H       1  ZINC000033150761    0.4300
     39 H39       -14.4725   -0.6243   54.6142 H       1  ZINC000033150761    0.1400
     40 H40       -15.4088   -1.8642   56.5211 H       1  ZINC000033150761    0.1500
     41 H41       -10.6159   -2.3052   55.4278 H       1  ZINC000033150761    0.1600
     42 H42       -13.5467   -0.9092   52.3551 H       1  ZINC000033150761    0.1800
@<TRIPOS>BOND
     1     1     2    2
     2     2     3    1
     3     2    16   am
     4     3     4    1
     5     3    30    1
     6     3    31    1
     7     4     5    1
     8     4    32    1
     9     4    33    1
    10     5    15    1
    11     5     6    2
    12     6     7    1
    13     7     8    1
    14     7    14    2
    15     8    13   ar
    16     8     9   ar
    17     9    10   ar
    18     9    34    1
    19    10    11   ar
    20    10    35    1
    21    11    12   ar
    22    11    36    1
    23    12    13   ar
    24    12    37    1
    25    14    15    1
    26    16    17    1
    27    16    38    1
    28    17    29    1
    29    17    18    2
    30    18    19    1
    31    19    20    1
    32    19    28    2
    33    20    27   ar
    34    20    21   ar
    35    21    22   ar
    36    21    39    1
    37    22    23   ar
    38    22    40    1
    39    23    24    1
    40    23    25   ar
    41    25    26    1
    42    25    27   ar
    43    27    41    1
    44    28    29    1
    45    28    42    1
@<TRIPOS>SUBSTRUCTURE
     1 ZINC000033150761        1 TEMP              0 ****  ****    0 ROOT


##########                                Name:    ZINC001573443776
##########                DOCK_Rotatable_Bonds:                   8
##########                         Heavy_Atoms:                  28
##########                    Molecular_Weight:             386.457
##########                DOCK_Rotatable_Bonds:                   8
##########                       Formal_Charge:          0.00999954
##########                     HBond_Acceptors:                  10
##########                        HBond_Donors:                   3
##########                         Heavy_Atoms:                  28
##########                          Grid_Score:          -35.139580
##########                     Grid_vdw_energy:          -35.122295
##########                      Grid_es_energy:           -0.017285
##########           Internal_energy_repulsive:           38.563503

@<TRIPOS>MOLECULE
ZINC001573443776
 54 56 1 0 0
SMALL
USER_CHARGES


@<TRIPOS>ATOM
      1 C1         -8.4601   -0.1920   61.2781 C.3     1  ZINC001573443776   -0.1800
      2 C2         -8.8400   -0.1910   59.8198 C.2     1  ZINC001573443776    0.5100
      3 O3         -8.0074    0.0671   58.9764 O.2     1  ZINC001573443776   -0.5400
      4 N4        -10.1049   -0.4768   59.4528 N.am    1  ZINC001573443776   -0.6100
      5 C5        -11.1245   -0.7914   60.4629 C.3     1  ZINC001573443776    0.1100
      6 C6        -11.7752   -2.1316   60.1059 C.3     1  ZINC001573443776   -0.1300
      7 C7        -12.3083   -2.0696   58.6728 C.3     1  ZINC001573443776   -0.1000
      8 C8        -11.1483   -1.8231   57.7054 C.3     1  ZINC001573443776   -0.1200
      9 H9        -10.4140   -2.6222   57.8066 H       1  ZINC001573443776    0.1000
     10 C10       -11.6697   -1.7952   56.2916 C.2     1  ZINC001573443776    0.5200
     11 O11       -11.6372   -2.8001   55.6135 O.2     1  ZINC001573443776   -0.5300
     12 N12       -12.1719   -0.6535   55.7811 N.am    1  ZINC001573443776   -0.7300
     13 C13       -12.6802   -0.6269   54.4074 C.3     1  ZINC001573443776    0.1100
     14 C14       -11.5181   -0.4025   53.4378 C.3     1  ZINC001573443776    0.1400
     15 H15       -10.8835   -1.2884   53.4201 H       1  ZINC001573443776    0.0900
     16 C16       -12.0681   -0.1410   52.0341 C.3     1  ZINC001573443776   -0.1700
     17 N17       -10.7317    0.7529   53.8771 N.pl3   1  ZINC001573443776   -0.7200
     18 C18        -9.5980    1.1312   53.1691 C.ar    1  ZINC001573443776    0.4300
     19 C19        -9.2664    2.4796   53.0725 C.ar    1  ZINC001573443776   -0.2500
     20 C20        -8.1374    2.8474   52.3671 C.ar    1  ZINC001573443776    0.0100
     21 C21        -7.3667    1.8420   51.7736 C.ar    1  ZINC001573443776   -0.1400
     22 C22        -6.1441    2.1859   51.0055 C.2     1  ZINC001573443776    0.2400
     23 N23        -4.9170    2.2785   51.4785 N.2     1  ZINC001573443776   -0.3000
     24 N24        -4.1402    2.5957   50.5004 N.pl3   1  ZINC001573443776   -0.2300
     25 N25        -4.8358    2.7071   49.4229 N.2     1  ZINC001573443776   -0.0500
     26 N26        -6.0717    2.4572   49.6946 N.2     1  ZINC001573443776   -0.2700
     27 C27        -7.7616    0.5149   51.9135 C.ar    1  ZINC001573443776    0.2300
     28 C28        -6.9406   -0.5782   51.2793 C.3     1  ZINC001573443776   -0.1200
     29 N29        -8.8433    0.2037   52.5990 N.ar    1  ZINC001573443776   -0.5400
     30 C30       -10.4919   -0.4739   58.0354 C.3     1  ZINC001573443776    0.1200
     31 H31        -8.5329    0.8212   61.6732 H       1  ZINC001573443776    0.0900
     32 H32        -9.1355   -0.8463   61.8291 H       1  ZINC001573443776    0.0800
     33 H33        -7.4368   -0.5516   61.3867 H       1  ZINC001573443776    0.1000
     34 H34       -10.6565   -0.8624   61.4447 H       1  ZINC001573443776    0.1000
     35 H35       -11.8827   -0.0083   60.4729 H       1  ZINC001573443776    0.0700
     36 H36       -11.0349   -2.9278   60.1847 H       1  ZINC001573443776    0.0700
     37 H37       -12.5984   -2.3304   60.7921 H       1  ZINC001573443776    0.0800
     38 H38       -12.7936   -3.0136   58.4247 H       1  ZINC001573443776    0.0800
     39 H39       -13.0302   -1.2573   58.5887 H       1  ZINC001573443776    0.0700
     40 H40       -12.1968    0.1505   56.3230 H       1  ZINC001573443776    0.4000
     41 H41       -13.1644   -1.5768   54.1805 H       1  ZINC001573443776    0.0900
     42 H42       -13.4023    0.1830   54.3027 H       1  ZINC001573443776    0.0800
     43 H43       -12.6532   -1.0006   51.7073 H       1  ZINC001573443776    0.0700
     44 H44       -12.7028    0.7450   52.0518 H       1  ZINC001573443776    0.0700
     45 H45       -11.2403    0.0188   51.3435 H       1  ZINC001573443776    0.0700
     46 H46       -11.0026    1.2536   54.6625 H       1  ZINC001573443776    0.4100
     47 H47        -9.8849    3.2294   53.5432 H       1  ZINC001573443776    0.1400
     48 H48        -7.8566    3.8862   52.2757 H       1  ZINC001573443776    0.1400
     49 H49        -3.1817    2.7298   50.5659 H       1  ZINC001573443776    0.4800
     50 H50        -6.1819   -0.9183   51.9842 H       1  ZINC001573443776    0.0800
     51 H51        -7.5898   -1.4125   51.0138 H       1  ZINC001573443776    0.0800
     52 H52        -6.4564   -0.1945   50.3814 H       1  ZINC001573443776    0.1100
     53 H53       -11.1999    0.3330   57.8461 H       1  ZINC001573443776    0.0800
     54 H54        -9.6053   -0.3376   57.4161 H       1  ZINC001573443776    0.0900
@<TRIPOS>BOND
     1     1     2    1
     2     1    31    1
     3     1    32    1
     4     1    33    1
     5     2     3    2
     6     2     4   am
     7     4    30    1
     8     4     5    1
     9     5     6    1
    10     5    34    1
    11     5    35    1
    12     6     7    1
    13     6    36    1
    14     6    37    1
    15     7     8    1
    16     7    38    1
    17     7    39    1
    18     8     9    1
    19     8    10    1
    20     8    30    1
    21    10    11    2
    22    10    12   am
    23    12    13    1
    24    12    40    1
    25    13    14    1
    26    13    41    1
    27    13    42    1
    28    14    15    1
    29    14    16    1
    30    14    17    1
    31    16    43    1
    32    16    44    1
    33    16    45    1
    34    17    18    1
    35    17    46    1
    36    18    29   ar
    37    18    19   ar
    38    19    20   ar
    39    19    47    1
    40    20    21   ar
    41    20    48    1
    42    21    22    1
    43    21    27   ar
    44    22    26    1
    45    22    23    2
    46    23    24    1
    47    24    25    1
    48    24    49    1
    49    25    26    2
    50    27    28    1
    51    27    29   ar
    52    28    50    1
    53    28    51    1
    54    28    52    1
    55    30    53    1
    56    30    54    1
@<TRIPOS>SUBSTRUCTURE
     1 ZINC001573443776        1 TEMP              0 ****  ****    0 ROOT


##########                                Name:     oleObject42.pdb
##########                DOCK_Rotatable_Bonds:                   9
##########                         Heavy_Atoms:                  36
##########                    Molecular_Weight:             527.493
##########                DOCK_Rotatable_Bonds:                   9
##########                       Formal_Charge:         9.99384e-05
##########                     HBond_Acceptors:                   8
##########                        HBond_Donors:                   0
##########                         Heavy_Atoms:                  36
##########                          Grid_Score:          -35.135155
##########                     Grid_vdw_energy:          -34.750153
##########                      Grid_es_energy:           -0.385002
##########           Internal_energy_repulsive:           51.230797

@<TRIPOS>MOLECULE
oleObject42.pdb
 68 71 1 0 0
SMALL
NO_CHARGES


@<TRIPOS>ATOM
      1 C         -12.7120    2.3438   55.1426 C.ar    1  UNL        -0.0435
      2 C         -12.7231    2.8254   53.8256 C.ar    1  UNL        -0.0559
      3 C         -11.5011    3.0103   53.1519 C.ar    1  UNL        -0.0272
      4 C         -10.2995    2.7005   53.8376 C.ar    1  UNL         0.0699
      5 N         -10.3033    2.2364   55.1092 N.ar    1  UNL        -0.2586
      6 C         -11.4769    2.0624   55.7448 C.ar    1  UNL         0.0272
      7 C          -8.9229    2.8724   53.1732 C.3     1  UNL         0.1101
      8 C          -7.8647    3.4809   54.1139 C.ar    1  UNL         0.0699
      9 C          -7.8145    4.8757   54.3635 C.ar    1  UNL        -0.0272
     10 C          -6.8156    5.3671   55.2250 C.ar    1  UNL        -0.0559
     11 C          -5.9080    4.4679   55.8028 C.ar    1  UNL        -0.0435
     12 C          -6.0278    3.1040   55.4986 C.ar    1  UNL         0.0272
     13 N          -6.9786    2.6249   54.6752 N.ar    1  UNL        -0.2586
     14 C          -8.8026    5.8508   53.7326 C.3     1  UNL        -0.0379
     15 N          -8.4732    1.6483   52.4537 N.am    1  UNL        -0.2902
     16 C          -7.3750    1.6343   51.5928 C.2     1  UNL         0.2180
     17 O          -6.8876    0.5746   51.2349 O.2     1  UNL        -0.2772
     18 C          -6.6126    2.9680   51.3997 C.3     1  UNL         0.0385
     19 C          -6.2888    3.2209   49.9075 C.3     1  UNL        -0.0289
     20 C          -5.1369    2.3275   49.3995 C.3     1  UNL        -0.0010
     21 N          -3.9248    2.4816   50.2327 N.4     1  UNL        -0.3010
     22 C          -4.1470    2.2154   51.6712 C.3     1  UNL        -0.0010
     23 C          -5.3159    3.0503   52.2474 C.3     1  UNL        -0.0289
     24 C          -2.7239    1.8196   49.6764 C.3     1  UNL         0.0222
     25 C          -2.2288    2.4297   48.3460 C.3     1  UNL         0.0661
     26 O          -0.9935    1.7847   47.9987 O.3     1  UNL        -0.3432
     27 C          -0.3543    2.1519   46.8401 C.ar    1  UNL         0.0937
     28 C           0.1308    3.4646   46.7147 C.ar    1  UNL        -0.0288
     29 C           0.7856    3.8629   45.5375 C.ar    1  UNL        -0.0408
     30 C           0.9519    2.9477   44.4846 C.ar    1  UNL         0.0422
     31 C           0.4633    1.6360   44.6050 C.ar    1  UNL        -0.0221
     32 C          -0.1917    1.2354   45.7817 C.ar    1  UNL         0.0723
     33 CL         -0.7968   -0.4061   45.9050 Cl      1  UNL        -0.0814
     34 CL          1.7676    3.4441   43.0173 Cl      1  UNL        -0.0843
     35 C          -9.3477    0.4632   52.5615 C.3     1  UNL         0.0038
     36 C         -11.5104    3.5303   51.7184 C.3     1  UNL        -0.0379
     37 H         -13.6401    2.1906   55.6853 H       1  UNL         0.0639
     38 H         -13.6673    3.0493   53.3369 H       1  UNL         0.0627
     39 H         -11.4241    1.6857   56.7656 H       1  UNL         0.0840
     40 H          -9.0756    3.6253   52.3956 H       1  UNL         0.0643
     41 H          -6.7432    6.4286   55.4446 H       1  UNL         0.0627
     42 H          -5.1283    4.8194   56.4721 H       1  UNL         0.0639
     43 H          -5.3433    2.3724   55.9260 H       1  UNL         0.0840
     44 H          -8.7010    5.8653   52.6404 H       1  UNL         0.0280
     45 H          -8.6416    6.8757   54.0894 H       1  UNL         0.0280
     46 H          -9.8377    5.5814   53.9762 H       1  UNL         0.0280
     47 H          -7.2518    3.7861   51.7470 H       1  UNL         0.0402
     48 H          -6.0009    4.2722   49.7780 H       1  UNL         0.0288
     49 H          -7.1803    3.0608   49.2896 H       1  UNL         0.0288
     50 H          -4.9119    2.6003   48.3604 H       1  UNL         0.0431
     51 H          -5.4688    1.2815   49.4060 H       1  UNL         0.0431
     52 H          -3.2366    2.4512   52.2369 H       1  UNL         0.0431
     53 H          -4.3589    1.1508   51.8256 H       1  UNL         0.0431
     54 H          -4.9963    4.0995   52.2935 H       1  UNL         0.0288
     55 H          -5.5220    2.7419   53.2804 H       1  UNL         0.0288
     56 H          -2.9389    0.7557   49.5140 H       1  UNL         0.0455
     57 H          -1.9088    1.8755   50.4094 H       1  UNL         0.0455
     58 H          -2.0680    3.5084   48.4628 H       1  UNL         0.0586
     59 H          -2.9713    2.2690   47.5547 H       1  UNL         0.0586
     60 H          -0.0008    4.1706   47.5296 H       1  UNL         0.0652
     61 H           1.1616    4.8777   45.4424 H       1  UNL         0.0639
     62 H           0.5911    0.9317   43.7878 H       1  UNL         0.0655
     63 H          -9.8548    0.4449   53.5343 H       1  UNL         0.0433
     64 H          -8.7511   -0.4528   52.4663 H       1  UNL         0.0433
     65 H         -10.0997    0.4856   51.7629 H       1  UNL         0.0433
     66 H         -12.5330    3.6734   51.3477 H       1  UNL         0.0280
     67 H         -11.0144    2.8283   51.0373 H       1  UNL         0.0280
     68 H         -10.9990    4.4978   51.6455 H       1  UNL         0.0280
@<TRIPOS>BOND
     1     1     2   ar
     2     1     6   ar
     3     1    37    1
     4     2     3   ar
     5     2    38    1
     6     3     4   ar
     7     3    36    1
     8     4     5   ar
     9     4     7    1
    10     5     6   ar
    11     6    39    1
    12     7     8    1
    13     7    15    1
    14     7    40    1
    15     8     9   ar
    16     8    13   ar
    17     9    10   ar
    18     9    14    1
    19    10    11   ar
    20    10    41    1
    21    11    12   ar
    22    11    42    1
    23    12    13   ar
    24    12    43    1
    25    14    44    1
    26    14    45    1
    27    14    46    1
    28    15    16   am
    29    15    35    1
    30    16    17    2
    31    16    18    1
    32    18    19    1
    33    18    23    1
    34    18    47    1
    35    19    20    1
    36    19    48    1
    37    19    49    1
    38    20    21    1
    39    20    50    1
    40    20    51    1
    41    21    22    1
    42    21    24    1
    43    22    23    1
    44    22    52    1
    45    22    53    1
    46    23    54    1
    47    23    55    1
    48    24    25    1
    49    24    56    1
    50    24    57    1
    51    25    26    1
    52    25    58    1
    53    25    59    1
    54    26    27    1
    55    27    28   ar
    56    27    32   ar
    57    28    29   ar
    58    28    60    1
    59    29    30   ar
    60    29    61    1
    61    30    31   ar
    62    30    34    1
    63    31    32   ar
    64    31    62    1
    65    32    33    1
    66    35    63    1
    67    35    64    1
    68    35    65    1
    69    36    66    1
    70    36    67    1
    71    36    68    1
@<TRIPOS>SUBSTRUCTURE
     1 UNL         1 TEMP              0 ****  ****    0 ROOT


##########                                Name:    ZINC001408567397
##########                DOCK_Rotatable_Bonds:                   9
##########                         Heavy_Atoms:                  24
##########                    Molecular_Weight:             336.434
##########                DOCK_Rotatable_Bonds:                   9
##########                       Formal_Charge:          -0.0199996
##########                     HBond_Acceptors:                   7
##########                        HBond_Donors:                   2
##########                         Heavy_Atoms:                  24
##########                          Grid_Score:          -35.069283
##########                     Grid_vdw_energy:          -33.905891
##########                      Grid_es_energy:           -1.163393
##########           Internal_energy_repulsive:           16.451458

@<TRIPOS>MOLECULE
ZINC001408567397
 52 53 1 0 0
SMALL
USER_CHARGES


@<TRIPOS>ATOM
      1 C1         -0.9182   -1.3803   48.9491 C.3     1  ZINC001408567397   -0.0800
      2 C2         -0.8138   -0.5540   47.6932 C.2     1  ZINC001408567397    0.0900
      3 N3         -0.6725   -1.0189   46.4785 N.2     1  ZINC001408567397   -0.2900
      4 N4         -0.6158    0.0686   45.5974 N.pl3   1  ZINC001408567397   -0.4700
      5 C5         -0.7278    1.1993   46.3254 C.2     1  ZINC001408567397    0.1100
      6 C6         -0.7172    2.6070   45.7877 C.3     1  ZINC001408567397   -0.1000
      7 C7         -0.8571    0.8424   47.6243 C.2     1  ZINC001408567397   -0.2200
      8 C8         -1.0116    1.7833   48.7911 C.3     1  ZINC001408567397   -0.0600
      9 C9         -2.4764    2.0065   49.0660 C.2     1  ZINC001408567397    0.5100
     10 O10        -3.0863    2.8556   48.4514 O.2     1  ZINC001408567397   -0.5300
     11 N11        -3.1088    1.2623   49.9950 N.am    1  ZINC001408567397   -0.7300
     12 C12        -4.5332    1.4781   50.2610 C.3     1  ZINC001408567397    0.1100
     13 C13        -4.7020    2.6837   51.1876 C.3     1  ZINC001408567397    0.1000
     14 N14        -6.1284    2.9668   51.3655 N.am    1  ZINC001408567397   -0.6200
     15 C15        -6.7878    3.9659   50.5208 C.3     1  ZINC001408567397    0.0700
     16 C16        -6.8340    2.3083   52.3063 C.2     1  ZINC001408567397    0.5100
     17 O17        -6.2877    1.4824   53.0065 O.2     1  ZINC001408567397   -0.5300
     18 C18        -8.3015    2.5983   52.4881 C.3     1  ZINC001408567397   -0.1300
     19 C19        -8.9750    1.4092   53.1759 C.3     1  ZINC001408567397   -0.1100
     20 H20        -8.4423    1.1714   54.0967 H       1  ZINC001408567397    0.0900
     21 C21       -10.4291    1.7630   53.5027 C.3     1  ZINC001408567397   -0.1200
     22 C22       -11.1145    0.5399   54.1195 C.3     1  ZINC001408567397   -0.1600
     23 C23       -11.0075   -0.6391   53.1488 C.3     1  ZINC001408567397    0.0600
     24 O24        -9.6310   -0.8957   52.8630 O.3     1  ZINC001408567397   -0.3800
     25 C25        -8.9493    0.1962   52.2423 C.3     1  ZINC001408567397    0.0600
     26 H26        -1.9646   -1.6167   49.1425 H       1  ZINC001408567397    0.0800
     27 H27        -0.3542   -2.3046   48.8239 H       1  ZINC001408567397    0.0700
     28 H28        -0.5116   -0.8174   49.7893 H       1  ZINC001408567397    0.0800
     29 H29        -0.5140    0.0179   44.6340 H       1  ZINC001408567397    0.4400
     30 H30        -1.7361    2.9134   45.5513 H       1  ZINC001408567397    0.0800
     31 H31        -0.3003    3.2793   46.5376 H       1  ZINC001408567397    0.0900
     32 H32        -0.1073    2.6465   44.8851 H       1  ZINC001408567397    0.0700
     33 H33        -0.5385    1.3501   49.6723 H       1  ZINC001408567397    0.1000
     34 H34        -0.5370    2.7358   48.5552 H       1  ZINC001408567397    0.1000
     35 H35        -2.6207    0.5840   50.4875 H       1  ZINC001408567397    0.4000
     36 H36        -5.0539    1.6657   49.3220 H       1  ZINC001408567397    0.0700
     37 H37        -4.9520    0.5918   50.7378 H       1  ZINC001408567397    0.0700
     38 H38        -4.2518    2.4639   52.1555 H       1  ZINC001408567397    0.0800
     39 H39        -4.2116    3.5519   50.7474 H       1  ZINC001408567397    0.0900
     40 H40        -7.1819    3.4827   49.6268 H       1  ZINC001408567397    0.0600
     41 H41        -7.6054    4.4274   51.0747 H       1  ZINC001408567397    0.0800
     42 H42        -6.0669    4.7309   50.2327 H       1  ZINC001408567397    0.0800
     43 H43        -8.4223    3.4900   53.1032 H       1  ZINC001408567397    0.1000
     44 H44        -8.7626    2.7635   51.5143 H       1  ZINC001408567397    0.1000
     45 H45       -10.4525    2.5904   54.2119 H       1  ZINC001408567397    0.0700
     46 H46       -10.9488    2.0498   52.5886 H       1  ZINC001408567397    0.0600
     47 H47       -10.6252    0.2835   55.0592 H       1  ZINC001408567397    0.0700
     48 H48       -12.1648    0.7654   54.3044 H       1  ZINC001408567397    0.0700
     49 H49       -11.4560   -1.5237   53.6006 H       1  ZINC001408567397    0.0900
     50 H50       -11.5317   -0.3973   52.2242 H       1  ZINC001408567397    0.0500
     51 H51        -9.4460    0.4496   51.3056 H       1  ZINC001408567397    0.0400
     52 H52        -7.9163   -0.0875   52.0409 H       1  ZINC001408567397    0.1100
@<TRIPOS>BOND
     1     1     2    1
     2     1    26    1
     3     1    27    1
     4     1    28    1
     5     2     7    1
     6     2     3    2
     7     3     4    1
     8     4     5    1
     9     4    29    1
    10     5     6    1
    11     5     7    2
    12     6    30    1
    13     6    31    1
    14     6    32    1
    15     7     8    1
    16     8     9    1
    17     8    33    1
    18     8    34    1
    19     9    10    2
    20     9    11   am
    21    11    12    1
    22    11    35    1
    23    12    13    1
    24    12    36    1
    25    12    37    1
    26    13    14    1
    27    13    38    1
    28    13    39    1
    29    14    15    1
    30    14    16   am
    31    15    40    1
    32    15    41    1
    33    15    42    1
    34    16    17    2
    35    16    18    1
    36    18    19    1
    37    18    43    1
    38    18    44    1
    39    19    20    1
    40    19    25    1
    41    19    21    1
    42    21    22    1
    43    21    45    1
    44    21    46    1
    45    22    23    1
    46    22    47    1
    47    22    48    1
    48    23    24    1
    49    23    49    1
    50    23    50    1
    51    24    25    1
    52    25    51    1
    53    25    52    1
@<TRIPOS>SUBSTRUCTURE
     1 ZINC001408567397        1 TEMP              0 ****  ****    0 ROOT


##########                                Name:    ZINC001328997126
##########                DOCK_Rotatable_Bonds:                   7
##########                         Heavy_Atoms:                  26
##########                    Molecular_Weight:             388.488
##########                DOCK_Rotatable_Bonds:                   7
##########                       Formal_Charge:           0.0299993
##########                     HBond_Acceptors:                  10
##########                        HBond_Donors:                   1
##########                         Heavy_Atoms:                  26
##########                          Grid_Score:          -35.059765
##########                     Grid_vdw_energy:          -31.468977
##########                      Grid_es_energy:           -3.590788
##########           Internal_energy_repulsive:            8.752892

@<TRIPOS>MOLECULE
ZINC001328997126
 54 56 1 0 0
SMALL
USER_CHARGES


@<TRIPOS>ATOM
      1 C1         -9.3076    1.9119   52.5371 C.3     1  ZINC001328997126   -0.1700
      2 C2        -10.3824    2.9364   52.1681 C.3     1  ZINC001328997126    0.1400
      3 N3         -9.7512    4.2306   51.8982 N.am    1  ZINC001328997126   -0.6300
      4 C4         -9.5728    4.8347   50.5690 C.3     1  ZINC001328997126    0.0700
      5 C5         -8.8659    6.1714   50.8654 C.3     1  ZINC001328997126    0.0700
      6 H6         -9.4806    7.0097   50.5375 H       1  ZINC001328997126    0.1200
      7 C7         -7.4953    6.2154   50.1867 C.3     1  ZINC001328997126    0.0500
      8 N8         -6.7198    5.0289   50.5722 N.3     1  ZINC001328997126   -0.5300
      9 C9         -5.5301    5.4064   51.3478 C.3     1  ZINC001328997126    0.0500
     10 C10        -4.7944    4.1416   51.7967 C.3     1  ZINC001328997126    0.0600
     11 N11        -4.4207    3.3504   50.6161 N.3     1  ZINC001328997126   -0.5200
     12 C12        -3.6452    2.1638   51.0015 C.3     1  ZINC001328997126    0.0400
     13 C13        -2.4453    2.0329   50.0992 C.2     1  ZINC001328997126    0.5200
     14 O14        -1.6589    2.9508   49.9990 O.2     1  ZINC001328997126   -0.5100
     15 N15        -2.2462    0.8959   49.4035 N.am    1  ZINC001328997126   -0.7300
     16 C16        -1.0806    0.7693   48.5250 C.3     1  ZINC001328997126    0.1600
     17 H17        -0.2148    1.2353   48.9955 H       1  ZINC001328997126    0.1100
     18 C18        -0.7889   -0.7186   48.2634 C.3     1  ZINC001328997126   -0.1400
     19 C19         0.2201   -0.7729   47.0874 C.3     1  ZINC001328997126   -0.5800
     20 S20        -0.4415    0.4902   45.9358 S.o2    1  ZINC001328997126    2.4000
     21 O21         0.6305    1.2743   45.4305 O.2     1  ZINC001328997126   -0.9300
     22 O22        -1.3540   -0.1244   45.0364 O.2     1  ZINC001328997126   -0.9300
     23 C23        -1.3708    1.4579   47.1765 C.3     1  ZINC001328997126   -0.6100
     24 C24        -5.6104    2.9728   49.8405 C.3     1  ZINC001328997126    0.0500
     25 C25        -6.3460    4.2376   49.3916 C.3     1  ZINC001328997126    0.0600
     26 O26        -8.7215    6.1802   52.3152 O.3     1  ZINC001328997126   -0.3100
     27 C27        -9.2473    5.0597   52.8226 C.2     1  ZINC001328997126    0.6400
     28 O28        -9.2594    4.8125   54.0121 O.2     1  ZINC001328997126   -0.5200
     29 H29        -8.6053    1.8081   51.7099 H       1  ZINC001328997126    0.0600
     30 H30        -8.7747    2.2486   53.4262 H       1  ZINC001328997126    0.0600
     31 H31        -9.7773    0.9489   52.7378 H       1  ZINC001328997126    0.0700
     32 H32       -10.9154    2.5996   51.2789 H       1  ZINC001328997126    0.0900
     33 H33       -11.0848    3.0401   52.9952 H       1  ZINC001328997126    0.0900
     34 H34        -8.9462    4.2011   49.9414 H       1  ZINC001328997126    0.0900
     35 H35       -10.5388    5.0093   50.0950 H       1  ZINC001328997126    0.0900
     36 H36        -7.6261    6.2284   49.1047 H       1  ZINC001328997126    0.0900
     37 H37        -6.9638    7.1142   50.4992 H       1  ZINC001328997126    0.0600
     38 H38        -4.8685    6.0112   50.7276 H       1  ZINC001328997126    0.0500
     39 H39        -5.8338    5.9805   52.2232 H       1  ZINC001328997126    0.0900
     40 H40        -3.8960    4.4196   52.3475 H       1  ZINC001328997126    0.0800
     41 H41        -5.4469    3.5502   52.4391 H       1  ZINC001328997126    0.0500
     42 H42        -3.3133    2.2665   52.0347 H       1  ZINC001328997126    0.1100
     43 H43        -4.2695    1.2752   50.9071 H       1  ZINC001328997126    0.0700
     44 H44        -2.8745    0.1614   49.4845 H       1  ZINC001328997126    0.4100
     45 H45        -0.3520   -1.1752   49.1515 H       1  ZINC001328997126    0.1100
     46 H46        -1.7083   -1.2369   47.9907 H       1  ZINC001328997126    0.0900
     47 H47         1.2212   -0.5031   47.4239 H       1  ZINC001328997126    0.1400
     48 H48         0.2196   -1.7587   46.6223 H       1  ZINC001328997126    0.1400
     49 H49        -2.4382    1.4290   46.9571 H       1  ZINC001328997126    0.1400
     50 H50        -1.0155    2.4881   47.1966 H       1  ZINC001328997126    0.1500
     51 H51        -5.3067    2.3987   48.9650 H       1  ZINC001328997126    0.1000
     52 H52        -6.2720    2.3681   50.4607 H       1  ZINC001328997126    0.0400
     53 H53        -7.2446    3.9596   48.8408 H       1  ZINC001328997126    0.0800
     54 H54        -5.6936    4.8291   48.7491 H       1  ZINC001328997126    0.0500
@<TRIPOS>BOND
     1     1     2    1
     2     1    29    1
     3     1    30    1
     4     1    31    1
     5     2     3    1
     6     2    32    1
     7     2    33    1
     8     3    27   am
     9     3     4    1
    10     4     5    1
    11     4    34    1
    12     4    35    1
    13     5     6    1
    14     5     7    1
    15     5    26    1
    16     7     8    1
    17     7    36    1
    18     7    37    1
    19     8    25    1
    20     8     9    1
    21     9    10    1
    22     9    38    1
    23     9    39    1
    24    10    11    1
    25    10    40    1
    26    10    41    1
    27    11    12    1
    28    11    24    1
    29    12    13    1
    30    12    42    1
    31    12    43    1
    32    13    14    2
    33    13    15   am
    34    15    16    1
    35    15    44    1
    36    16    17    1
    37    16    23    1
    38    16    18    1
    39    18    19    1
    40    18    45    1
    41    18    46    1
    42    19    20    1
    43    19    47    1
    44    19    48    1
    45    20    21    2
    46    20    22    2
    47    20    23    1
    48    23    49    1
    49    23    50    1
    50    24    25    1
    51    24    51    1
    52    24    52    1
    53    25    53    1
    54    25    54    1
    55    26    27    1
    56    27    28    2
@<TRIPOS>SUBSTRUCTURE
     1 ZINC001328997126        1 TEMP              0 ****  ****    0 ROOT


##########                                Name:    ZINC000027473870
##########                DOCK_Rotatable_Bonds:                  10
##########                         Heavy_Atoms:                  31
##########                    Molecular_Weight:             422.502
##########                DOCK_Rotatable_Bonds:                  10
##########                       Formal_Charge:        -7.45058e-08
##########                     HBond_Acceptors:                   7
##########                        HBond_Donors:                   1
##########                         Heavy_Atoms:                  31
##########                          Grid_Score:          -35.014359
##########                     Grid_vdw_energy:          -34.855446
##########                      Grid_es_energy:           -0.158911
##########           Internal_energy_repulsive:           19.671112

@<TRIPOS>MOLECULE
ZINC000027473870
 58 60 1 0 0
SMALL
USER_CHARGES


@<TRIPOS>ATOM
      1 C1         -0.2378    4.4924   49.2732 C.3     1  ZINC000027473870   -0.1400
      2 C2         -0.2162    3.1316   49.9721 C.3     1  ZINC000027473870   -0.0800
      3 C3         -1.6268    2.6257   50.1303 C.2     1  ZINC000027473870    0.1700
      4 C4         -2.5307    3.0136   51.0994 C.2     1  ZINC000027473870   -0.2900
      5 C5         -2.2961    3.9988   52.1706 C.2     1  ZINC000027473870    0.6000
      6 O6         -2.8857    5.0623   52.1583 O.2     1  ZINC000027473870   -0.5400
      7 N7         -1.4283    3.7209   53.1636 N.am    1  ZINC000027473870   -0.7200
      8 C8         -1.1966    4.6993   54.2291 C.3     1  ZINC000027473870    0.1600
      9 C9         -0.6147    4.0032   55.4324 C.ar    1  ZINC000027473870   -0.0900
     10 C10        -1.4543    3.4018   56.3531 C.ar    1  ZINC000027473870   -0.1100
     11 C11        -0.9282    2.7633   57.4570 C.ar    1  ZINC000027473870   -0.1100
     12 C12         0.4545    2.7246   57.6438 C.ar    1  ZINC000027473870   -0.1200
     13 C13         1.0254    2.0417   58.8244 C.2     1  ZINC000027473870    0.5600
     14 O14         1.7845    1.1040   58.6760 O.2     1  ZINC000027473870   -0.5300
     15 N15         0.7042    2.4589   60.0650 N.am    1  ZINC000027473870   -0.6100
     16 C16         1.2698    1.7823   61.2347 C.3     1  ZINC000027473870    0.1100
     17 C17         0.3592    0.6225   61.6428 C.3     1  ZINC000027473870   -0.1700
     18 C18        -0.2108    3.5891   60.2438 C.3     1  ZINC000027473870    0.0900
     19 C19         0.5907    4.8916   60.2902 C.3     1  ZINC000027473870   -0.1800
     20 C20         1.2959    3.3328   56.7110 C.ar    1  ZINC000027473870   -0.0700
     21 C21         0.7570    3.9635   55.6086 C.ar    1  ZINC000027473870   -0.1000
     22 C22        -3.7229    2.2897   50.8720 C.2     1  ZINC000027473870    0.0900
     23 N23        -3.5379    1.5212   49.8338 N.2     1  ZINC000027473870   -0.2800
     24 N24        -2.2396    1.7173   49.3499 N.pl3   1  ZINC000027473870   -0.3100
     25 C25        -1.6703    1.0693   48.2445 C.ar    1  ZINC000027473870    0.1300
     26 C26        -1.0430   -0.1587   48.4059 C.ar    1  ZINC000027473870   -0.0900
     27 C27        -0.4832   -0.7957   47.3159 C.ar    1  ZINC000027473870   -0.1300
     28 C28        -0.5473   -0.2103   46.0625 C.ar    1  ZINC000027473870    0.1100
     29 F29         0.0005   -0.8351   44.9972 F       1  ZINC000027473870   -0.1300
     30 C30        -1.1726    1.0147   45.8996 C.ar    1  ZINC000027473870   -0.1400
     31 C31        -1.7381    1.6522   46.9863 C.ar    1  ZINC000027473870   -0.0700
     32 H32         0.7731    4.8985   49.2371 H       1  ZINC000027473870    0.0700
     33 H33        -0.6180    4.3738   48.2586 H       1  ZINC000027473870    0.0700
     34 H34        -0.8839    5.1745   49.8260 H       1  ZINC000027473870    0.0500
     35 H35         0.3584    2.4247   49.3735 H       1  ZINC000027473870    0.1200
     36 H36         0.2452    3.2349   50.9543 H       1  ZINC000027473870    0.0800
     37 H37        -0.9571    2.8731   53.1728 H       1  ZINC000027473870    0.4000
     38 H38        -0.5004    5.4609   53.8780 H       1  ZINC000027473870    0.0800
     39 H39        -2.1414    5.1691   54.5027 H       1  ZINC000027473870    0.0800
     40 H40        -2.5240    3.4326   56.2074 H       1  ZINC000027473870    0.1300
     41 H41        -1.5847    2.2949   58.1754 H       1  ZINC000027473870    0.1500
     42 H42         2.2597    1.3978   60.9887 H       1  ZINC000027473870    0.0800
     43 H43         1.3497    2.4895   62.0602 H       1  ZINC000027473870    0.0800
     44 H44         0.7802    0.1190   62.5132 H       1  ZINC000027473870    0.0700
     45 H45        -0.6306    1.0069   61.8890 H       1  ZINC000027473870    0.0600
     46 H46         0.2795   -0.0848   60.8173 H       1  ZINC000027473870    0.0600
     47 H47        -0.9124    3.6239   59.4104 H       1  ZINC000027473870    0.0800
     48 H48        -0.7607    3.4674   61.1770 H       1  ZINC000027473870    0.0900
     49 H49        -0.0404    5.6930   60.6743 H       1  ZINC000027473870    0.0700
     50 H50         1.4538    4.7640   60.9435 H       1  ZINC000027473870    0.0700
     51 H51         0.9297    5.1457   59.2859 H       1  ZINC000027473870    0.0600
     52 H52         2.3667    3.3067   56.8500 H       1  ZINC000027473870    0.1300
     53 H53         1.4069    4.4343   54.8859 H       1  ZINC000027473870    0.1300
     54 H54        -4.6288    2.3598   51.4559 H       1  ZINC000027473870    0.1900
     55 H55        -0.9924   -0.6155   49.3833 H       1  ZINC000027473870    0.1500
     56 H56         0.0051   -1.7509   47.4411 H       1  ZINC000027473870    0.1500
     57 H57        -1.2213    1.4698   44.9214 H       1  ZINC000027473870    0.1500
     58 H58        -2.2259    2.6072   46.8588 H       1  ZINC000027473870    0.1400
@<TRIPOS>BOND
     1     1     2    1
     2     1    32    1
     3     1    33    1
     4     1    34    1
     5     2     3    1
     6     2    35    1
     7     2    36    1
     8     3    24    1
     9     3     4    2
    10     4     5    1
    11     4    22    1
    12     5     6    2
    13     5     7   am
    14     7     8    1
    15     7    37    1
    16     8     9    1
    17     8    38    1
    18     8    39    1
    19     9    21   ar
    20     9    10   ar
    21    10    11   ar
    22    10    40    1
    23    11    12   ar
    24    11    41    1
    25    12    13    1
    26    12    20   ar
    27    13    14    2
    28    13    15   am
    29    15    16    1
    30    15    18    1
    31    16    17    1
    32    16    42    1
    33    16    43    1
    34    17    44    1
    35    17    45    1
    36    17    46    1
    37    18    19    1
    38    18    47    1
    39    18    48    1
    40    19    49    1
    41    19    50    1
    42    19    51    1
    43    20    21   ar
    44    20    52    1
    45    21    53    1
    46    22    23    2
    47    22    54    1
    48    23    24    1
    49    24    25    1
    50    25    31   ar
    51    25    26   ar
    52    26    27   ar
    53    26    55    1
    54    27    28   ar
    55    27    56    1
    56    28    29    1
    57    28    30   ar
    58    30    31   ar
    59    30    57    1
    60    31    58    1
@<TRIPOS>SUBSTRUCTURE
     1 ZINC000027473870        1 TEMP              0 ****  ****    0 ROOT


##########                                Name:    ZINC000552360217
##########                DOCK_Rotatable_Bonds:                  13
##########                         Heavy_Atoms:                  27
##########                    Molecular_Weight:             401.484
##########                DOCK_Rotatable_Bonds:                  13
##########                       Formal_Charge:          -0.0100002
##########                     HBond_Acceptors:                  10
##########                        HBond_Donors:                   3
##########                         Heavy_Atoms:                  27
##########                          Grid_Score:          -34.976982
##########                     Grid_vdw_energy:          -33.714561
##########                      Grid_es_energy:           -1.262422
##########           Internal_energy_repulsive:           22.238285

@<TRIPOS>MOLECULE
ZINC000552360217
 54 54 1 0 0
SMALL
USER_CHARGES


@<TRIPOS>ATOM
      1 C1         -6.9094    4.0249   49.6597 C.3     1  ZINC000552360217    0.0800
      2 N2         -7.1541    3.1873   50.8366 N.am    1  ZINC000552360217   -1.0000
      3 C3         -8.2112    3.5472   51.7848 C.3     1  ZINC000552360217    0.0900
      4 S4         -6.2359    1.8336   51.0948 S.o2    1  ZINC000552360217    2.7000
      5 O5         -6.6078    1.3342   52.3721 O.2     1  ZINC000552360217   -0.9500
      6 O6         -6.3162    1.0612   49.9047 O.2     1  ZINC000552360217   -0.9500
      7 C7         -4.5600    2.3591   51.2347 C.ar    1  ZINC000552360217   -0.6900
      8 C8         -4.1903    3.2245   52.2487 C.ar    1  ZINC000552360217    0.0100
      9 C9         -2.8761    3.6417   52.3658 C.ar    1  ZINC000552360217   -0.1400
     10 C10        -1.9255    3.1966   51.4709 C.ar    1  ZINC000552360217   -0.0300
     11 C11        -2.2919    2.3233   50.4453 C.ar    1  ZINC000552360217   -0.1600
     12 C12        -1.2782    1.8418   49.4827 C.2     1  ZINC000552360217    0.5600
     13 O13        -0.3603    2.5673   49.1530 O.2     1  ZINC000552360217   -0.5300
     14 N14        -1.3719    0.5987   48.9708 N.am    1  ZINC000552360217   -0.7100
     15 C15        -0.3665    0.1209   48.0183 C.3     1  ZINC000552360217    0.1000
     16 C16        -0.6772    0.6618   46.6465 C.2     1  ZINC000552360217    0.5100
     17 O17        -1.4467    0.0686   45.9207 O.2     1  ZINC000552360217   -0.5400
     18 N18        -0.0996    1.8047   46.2260 N.am    1  ZINC000552360217   -0.7200
     19 C19        -0.4028    2.3314   44.8930 C.3     1  ZINC000552360217    0.1400
     20 C20         0.5613    3.4729   44.5643 C.3     1  ZINC000552360217    0.1000
     21 C21         0.7022    4.3881   45.7823 C.3     1  ZINC000552360217   -0.1800
     22 C22         1.9302    2.8953   44.1993 C.3     1  ZINC000552360217   -0.1800
     23 O23         0.0516    4.2241   43.4606 O.3     1  ZINC000552360217   -0.3700
     24 C24         0.9332    5.2493   42.9986 C.3     1  ZINC000552360217    0.0600
     25 C25         1.4619    4.8802   41.6111 C.3     1  ZINC000552360217    0.0800
     26 O26         2.3436    5.9057   41.1492 O.3     1  ZINC000552360217   -0.5700
     27 C27        -3.6179    1.9022   50.3359 C.ar    1  ZINC000552360217    0.0400
     28 H28        -6.1753    4.7921   49.9061 H       1  ZINC000552360217    0.0600
     29 H29        -6.5297    3.4066   48.8463 H       1  ZINC000552360217    0.0900
     30 H30        -7.8411    4.4992   49.3513 H       1  ZINC000552360217    0.0800
     31 H31        -8.7033    4.4608   51.4509 H       1  ZINC000552360217    0.0800
     32 H32        -8.9416    2.7400   51.8385 H       1  ZINC000552360217    0.0700
     33 H33        -7.7753    3.7089   52.7707 H       1  ZINC000552360217    0.0600
     34 H34        -4.9308    3.5762   52.9519 H       1  ZINC000552360217    0.1500
     35 H35        -2.5942    4.3177   53.1596 H       1  ZINC000552360217    0.1400
     36 H36        -0.9003    3.5233   51.5632 H       1  ZINC000552360217    0.1400
     37 H37        -2.1051    0.0201   49.2330 H       1  ZINC000552360217    0.4100
     38 H38         0.6204    0.4640   48.3292 H       1  ZINC000552360217    0.1000
     39 H39        -0.3806   -0.9686   47.9911 H       1  ZINC000552360217    0.1000
     40 H40         0.5168    2.2785   46.8060 H       1  ZINC000552360217    0.4100
     41 H41        -0.2912    1.5374   44.1546 H       1  ZINC000552360217    0.0800
     42 H42        -1.4271    2.7039   44.8739 H       1  ZINC000552360217    0.0900
     43 H43         1.0911    3.8151   46.6241 H       1  ZINC000552360217    0.0700
     44 H44         1.3890    5.2014   45.5481 H       1  ZINC000552360217    0.0700
     45 H45        -0.2730    4.7996   46.0424 H       1  ZINC000552360217    0.0700
     46 H46         1.8298    2.2434   43.3315 H       1  ZINC000552360217    0.0600
     47 H47         2.6171    3.7086   43.9650 H       1  ZINC000552360217    0.0700
     48 H48         2.3190    2.3224   45.0411 H       1  ZINC000552360217    0.0700
     49 H49         0.3933    6.1946   42.9420 H       1  ZINC000552360217    0.0600
     50 H50         1.7690    5.3492   43.6912 H       1  ZINC000552360217    0.0700
     51 H51         2.0019    3.9351   41.6677 H       1  ZINC000552360217    0.0600
     52 H52         0.6262    4.7804   40.9185 H       1  ZINC000552360217    0.0500
     53 H53         1.9292    6.7761   41.0740 H       1  ZINC000552360217    0.3800
     54 H54        -3.9077    1.2267   49.5447 H       1  ZINC000552360217    0.1500
@<TRIPOS>BOND
     1     1     2    1
     2     1    28    1
     3     1    29    1
     4     1    30    1
     5     2     3    1
     6     2     4   am
     7     3    31    1
     8     3    32    1
     9     3    33    1
    10     4     5    2
    11     4     6    2
    12     4     7    1
    13     7    27   ar
    14     7     8   ar
    15     8     9   ar
    16     8    34    1
    17     9    10   ar
    18     9    35    1
    19    10    11   ar
    20    10    36    1
    21    11    12    1
    22    11    27   ar
    23    12    13    2
    24    12    14   am
    25    14    15    1
    26    14    37    1
    27    15    16    1
    28    15    38    1
    29    15    39    1
    30    16    17    2
    31    16    18   am
    32    18    19    1
    33    18    40    1
    34    19    20    1
    35    19    41    1
    36    19    42    1
    37    20    21    1
    38    20    22    1
    39    20    23    1
    40    21    43    1
    41    21    44    1
    42    21    45    1
    43    22    46    1
    44    22    47    1
    45    22    48    1
    46    23    24    1
    47    24    25    1
    48    24    49    1
    49    24    50    1
    50    25    26    1
    51    25    51    1
    52    25    52    1
    53    26    53    1
    54    27    54    1
@<TRIPOS>SUBSTRUCTURE
     1 ZINC000552360217        1 TEMP              0 ****  ****    0 ROOT


##########                                Name:    ZINC000004598904
##########                DOCK_Rotatable_Bonds:                  13
##########                         Heavy_Atoms:                  30
##########                    Molecular_Weight:             412.442
##########                DOCK_Rotatable_Bonds:                  13
##########                       Formal_Charge:          -0.0300005
##########                     HBond_Acceptors:                   8
##########                        HBond_Donors:                   2
##########                         Heavy_Atoms:                  30
##########                          Grid_Score:          -34.950703
##########                     Grid_vdw_energy:          -34.832790
##########                      Grid_es_energy:           -0.117912
##########           Internal_energy_repulsive:           11.073622

@<TRIPOS>MOLECULE
ZINC000004598904
 54 55 1 0 0
SMALL
USER_CHARGES


@<TRIPOS>ATOM
      1 C1        -14.5353    1.1459   49.2409 C.3     1  ZINC000004598904   -0.1500
      2 C2        -14.7352    1.3253   50.7472 C.3     1  ZINC000004598904    0.0600
      3 O3        -13.4653    1.6574   51.3677 O.3     1  ZINC000004598904   -0.3500
      4 C4        -12.5941    0.6469   51.5569 C.2     1  ZINC000004598904    0.5100
      5 O5        -12.9687   -0.5048   51.4580 O.2     1  ZINC000004598904   -0.5100
      6 C6        -11.1861    0.9388   51.8841 C.ar    1  ZINC000004598904   -0.1500
      7 C7        -10.2476   -0.0966   51.9269 C.ar    1  ZINC000004598904   -0.0400
      8 C8         -8.9343    0.1796   52.2328 C.ar    1  ZINC000004598904   -0.1400
      9 C9         -8.5403    1.4872   52.4993 C.ar    1  ZINC000004598904    0.1800
     10 N10        -7.2091    1.7632   52.8083 N.am    1  ZINC000004598904   -0.6700
     11 C11        -6.3417    2.0817   51.8272 C.2     1  ZINC000004598904    0.5200
     12 O12        -6.7191    2.1285   50.6756 O.2     1  ZINC000004598904   -0.5100
     13 C13        -4.9028    2.3800   52.1613 C.3     1  ZINC000004598904   -0.1300
     14 C14        -4.3700    3.4526   51.2091 C.3     1  ZINC000004598904   -0.1300
     15 C15        -3.7411    2.7919   50.0095 C.2     1  ZINC000004598904    0.5200
     16 O16        -4.4251    2.4940   49.0534 O.2     1  ZINC000004598904   -0.5100
     17 N17        -2.4187    2.5322   49.9991 N.am    1  ZINC000004598904   -0.6700
     18 C18        -1.8370    1.9210   48.8893 C.ar    1  ZINC000004598904    0.1800
     19 C19        -1.3417    2.6999   47.8480 C.ar    1  ZINC000004598904   -0.1400
     20 C20        -0.7667    2.0999   46.7507 C.ar    1  ZINC000004598904   -0.0300
     21 C21        -0.6803    0.7062   46.6834 C.ar    1  ZINC000004598904   -0.1500
     22 C22        -0.0646    0.0597   45.5097 C.2     1  ZINC000004598904    0.5100
     23 O23        -0.7004   -0.7419   44.8545 O.2     1  ZINC000004598904   -0.5100
     24 O24         1.2031    0.3580   45.1639 O.3     1  ZINC000004598904   -0.3600
     25 C25         1.5295    0.3099   43.7499 C.3     1  ZINC000004598904    0.0600
     26 C26         3.0496    0.3116   43.5769 C.3     1  ZINC000004598904   -0.1500
     27 C27        -1.1786   -0.0733   47.7317 C.ar    1  ZINC000004598904   -0.0400
     28 C28        -1.7479    0.5337   48.8281 C.ar    1  ZINC000004598904   -0.1600
     29 C29        -9.4716    2.5201   52.4577 C.ar    1  ZINC000004598904   -0.1600
     30 C30       -10.7856    2.2522   52.1469 C.ar    1  ZINC000004598904   -0.0300
     31 H31       -13.8221    0.3410   49.0624 H       1  ZINC000004598904    0.0700
     32 H32       -15.4887    0.8966   48.7750 H       1  ZINC000004598904    0.0800
     33 H33       -14.1526    2.0721   48.8123 H       1  ZINC000004598904    0.0700
     34 H34       -15.4483    2.1302   50.9257 H       1  ZINC000004598904    0.0700
     35 H35       -15.1179    0.3990   51.1758 H       1  ZINC000004598904    0.0700
     36 H36       -10.5528   -1.1118   51.7205 H       1  ZINC000004598904    0.1400
     37 H37        -8.2088   -0.6198   52.2663 H       1  ZINC000004598904    0.1400
     38 H38        -6.9072    1.7257   53.7294 H       1  ZINC000004598904    0.4200
     39 H39        -4.8351    2.7397   53.1880 H       1  ZINC000004598904    0.1100
     40 H40        -4.3092    1.4721   52.0544 H       1  ZINC000004598904    0.1100
     41 H41        -5.1919    4.0901   50.8835 H       1  ZINC000004598904    0.1100
     42 H42        -3.6233    4.0571   51.7239 H       1  ZINC000004598904    0.1100
     43 H43        -1.8716    2.7706   50.7638 H       1  ZINC000004598904    0.4200
     44 H44        -1.4088    3.7766   47.9007 H       1  ZINC000004598904    0.1400
     45 H45        -0.3832    2.7050   45.9426 H       1  ZINC000004598904    0.1400
     46 H46         1.1150   -0.5982   43.3121 H       1  ZINC000004598904    0.0700
     47 H47         1.1059    1.1805   43.2495 H       1  ZINC000004598904    0.0700
     48 H48         3.2946    0.2754   42.5155 H       1  ZINC000004598904    0.0800
     49 H49         3.4641    1.2197   44.0148 H       1  ZINC000004598904    0.0700
     50 H50         3.4733   -0.5592   44.0774 H       1  ZINC000004598904    0.0700
     51 H51        -1.1138   -1.1502   47.6829 H       1  ZINC000004598904    0.1400
     52 H52        -2.1327   -0.0676   49.6385 H       1  ZINC000004598904    0.1400
     53 H53        -9.1624    3.5339   52.6651 H       1  ZINC000004598904    0.1400
     54 H54       -11.5079    3.0544   52.1147 H       1  ZINC000004598904    0.1400
@<TRIPOS>BOND
     1     1     2    1
     2     1    31    1
     3     1    32    1
     4     1    33    1
     5     2     3    1
     6     2    34    1
     7     2    35    1
     8     3     4    1
     9     4     5    2
    10     4     6    1
    11     6    30   ar
    12     6     7   ar
    13     7     8   ar
    14     7    36    1
    15     8     9   ar
    16     8    37    1
    17     9    10    1
    18     9    29   ar
    19    10    11   am
    20    10    38    1
    21    11    12    2
    22    11    13    1
    23    13    14    1
    24    13    39    1
    25    13    40    1
    26    14    15    1
    27    14    41    1
    28    14    42    1
    29    15    16    2
    30    15    17   am
    31    17    18    1
    32    17    43    1
    33    18    28   ar
    34    18    19   ar
    35    19    20   ar
    36    19    44    1
    37    20    21   ar
    38    20    45    1
    39    21    22    1
    40    21    27   ar
    41    22    23    2
    42    22    24    1
    43    24    25    1
    44    25    26    1
    45    25    46    1
    46    25    47    1
    47    26    48    1
    48    26    49    1
    49    26    50    1
    50    27    28   ar
    51    27    51    1
    52    28    52    1
    53    29    30   ar
    54    29    53    1
    55    30    54    1
@<TRIPOS>SUBSTRUCTURE
     1 ZINC000004598904        1 TEMP              0 ****  ****    0 ROOT


##########                                Name:    ZINC000062291520
##########                DOCK_Rotatable_Bonds:                  10
##########                         Heavy_Atoms:                  29
##########                    Molecular_Weight:             398.502
##########                DOCK_Rotatable_Bonds:                  10
##########                       Formal_Charge:          -0.0100006
##########                     HBond_Acceptors:                   6
##########                        HBond_Donors:                   1
##########                         Heavy_Atoms:                  29
##########                          Grid_Score:          -34.933201
##########                     Grid_vdw_energy:          -34.596344
##########                      Grid_es_energy:           -0.336856
##########           Internal_energy_repulsive:           12.168193

@<TRIPOS>MOLECULE
ZINC000062291520
 59 61 1 0 0
SMALL
USER_CHARGES


@<TRIPOS>ATOM
      1 C1        -13.4036    0.4475   50.8520 C.3     1  ZINC000062291520    0.0300
      2 O2        -12.1837   -0.0724   51.3848 O.3     1  ZINC000062291520   -0.3100
      3 C3        -12.1947   -0.4588   52.6886 C.ar    1  ZINC000062291520    0.1000
      4 C4        -13.3760   -0.4294   53.4115 C.ar    1  ZINC000062291520   -0.1700
      5 C5        -13.3842   -0.8173   54.7388 C.ar    1  ZINC000062291520   -0.1200
      6 C6        -12.2166   -1.2403   55.3456 C.ar    1  ZINC000062291520   -0.1200
      7 C7        -11.0352   -1.2780   54.6279 C.ar    1  ZINC000062291520   -0.1700
      8 C8        -11.0201   -0.8907   53.2979 C.ar    1  ZINC000062291520    0.1000
      9 O9         -9.8590   -0.9273   52.5907 O.3     1  ZINC000062291520   -0.3100
     10 C10        -9.3375    0.3225   52.1346 C.3     1  ZINC000062291520    0.0700
     11 C11        -7.8583    0.1589   51.7795 C.3     1  ZINC000062291520   -0.1400
     12 C12        -7.3093    1.4761   51.2952 C.2     1  ZINC000062291520    0.5200
     13 O13        -8.0106    2.4655   51.3043 O.2     1  ZINC000062291520   -0.5400
     14 N14        -6.0390    1.5544   50.8518 N.am    1  ZINC000062291520   -0.7200
     15 C15        -5.5058    2.8346   50.3794 C.3     1  ZINC000062291520    0.1600
     16 C16        -4.0158    2.8713   50.6027 C.ar    1  ZINC000062291520   -0.1100
     17 C17        -3.5119    3.1590   51.8571 C.ar    1  ZINC000062291520   -0.1000
     18 C18        -2.1450    3.1922   52.0620 C.ar    1  ZINC000062291520   -0.1200
     19 C19        -1.2825    2.9379   51.0125 C.ar    1  ZINC000062291520   -0.0900
     20 C20        -1.7865    2.6506   49.7575 C.ar    1  ZINC000062291520   -0.0800
     21 C21        -0.8460    2.3736   48.6131 C.3     1  ZINC000062291520    0.0900
     22 N22        -0.1929    1.0741   48.8195 N.3     1  ZINC000062291520   -0.5300
     23 C23        -1.0996   -0.0315   48.4772 C.3     1  ZINC000062291520    0.0100
     24 C24        -0.4015   -1.3638   48.7629 C.3     1  ZINC000062291520    0.0600
     25 O25         0.8240   -1.4213   48.0280 O.3     1  ZINC000062291520   -0.3800
     26 C26         1.7310   -0.3596   48.3370 C.3     1  ZINC000062291520    0.0900
     27 H27         2.0047   -0.4099   49.3908 H       1  ZINC000062291520    0.0700
     28 C28         2.9883   -0.4949   47.4757 C.3     1  ZINC000062291520   -0.1500
     29 C29         1.0546    0.9829   48.0471 C.3     1  ZINC000062291520    0.0200
     30 C30        -3.1531    2.6116   49.5540 C.ar    1  ZINC000062291520   -0.0900
     31 H31       -14.1843   -0.3094   50.9266 H       1  ZINC000062291520    0.0500
     32 H32       -13.6993    1.3315   51.4170 H       1  ZINC000062291520    0.0600
     33 H33       -13.2575    0.7170   49.8060 H       1  ZINC000062291520    0.1000
     34 H34       -14.2896   -0.0992   52.9398 H       1  ZINC000062291520    0.1400
     35 H35       -14.3050   -0.7900   55.3025 H       1  ZINC000062291520    0.1300
     36 H36       -12.2271   -1.5425   56.3823 H       1  ZINC000062291520    0.1300
     37 H37       -10.1244   -1.6096   55.1041 H       1  ZINC000062291520    0.1400
     38 H38        -9.4417    1.0688   52.9223 H       1  ZINC000062291520    0.0700
     39 H39        -9.8894    0.6462   51.2521 H       1  ZINC000062291520    0.0700
     40 H40        -7.7540   -0.5893   50.9937 H       1  ZINC000062291520    0.1100
     41 H41        -7.3060   -0.1623   52.6626 H       1  ZINC000062291520    0.1100
     42 H42        -5.4777    0.7634   50.8456 H       1  ZINC000062291520    0.4000
     43 H43        -5.7166    2.9456   49.3157 H       1  ZINC000062291520    0.0800
     44 H44        -5.9758    3.6495   50.9299 H       1  ZINC000062291520    0.0800
     45 H45        -4.1860    3.3573   52.6773 H       1  ZINC000062291520    0.1200
     46 H46        -1.7513    3.4166   53.0424 H       1  ZINC000062291520    0.1300
     47 H47        -0.2147    2.9638   51.1727 H       1  ZINC000062291520    0.1200
     48 H48        -1.4068    2.3541   47.6787 H       1  ZINC000062291520    0.0500
     49 H49        -0.0897    3.1571   48.5666 H       1  ZINC000062291520    0.0900
     50 H50        -2.0055    0.0412   49.0790 H       1  ZINC000062291520    0.0900
     51 H51        -1.3593    0.0248   47.4202 H       1  ZINC000062291520    0.0400
     52 H52        -0.1904   -1.4428   49.8294 H       1  ZINC000062291520    0.0600
     53 H53        -1.0481   -2.1863   48.4572 H       1  ZINC000062291520    0.1000
     54 H54         2.7142   -0.4430   46.4220 H       1  ZINC000062291520    0.0600
     55 H55         3.6792    0.3145   47.7116 H       1  ZINC000062291520    0.0700
     56 H56         3.4673   -1.4525   47.6798 H       1  ZINC000062291520    0.0700
     57 H57         0.8299    1.0549   46.9829 H       1  ZINC000062291520    0.0400
     58 H58         1.7211    1.7959   48.3348 H       1  ZINC000062291520    0.0900
     59 H59        -3.5468    2.3825   48.5748 H       1  ZINC000062291520    0.1200
@<TRIPOS>BOND
     1     1     2    1
     2     1    31    1
     3     1    32    1
     4     1    33    1
     5     2     3    1
     6     3     8   ar
     7     3     4   ar
     8     4     5   ar
     9     4    34    1
    10     5     6   ar
    11     5    35    1
    12     6     7   ar
    13     6    36    1
    14     7     8   ar
    15     7    37    1
    16     8     9    1
    17     9    10    1
    18    10    11    1
    19    10    38    1
    20    10    39    1
    21    11    12    1
    22    11    40    1
    23    11    41    1
    24    12    13    2
    25    12    14   am
    26    14    15    1
    27    14    42    1
    28    15    16    1
    29    15    43    1
    30    15    44    1
    31    16    30   ar
    32    16    17   ar
    33    17    18   ar
    34    17    45    1
    35    18    19   ar
    36    18    46    1
    37    19    20   ar
    38    19    47    1
    39    20    21    1
    40    20    30   ar
    41    21    22    1
    42    21    48    1
    43    21    49    1
    44    22    29    1
    45    22    23    1
    46    23    24    1
    47    23    50    1
    48    23    51    1
    49    24    25    1
    50    24    52    1
    51    24    53    1
    52    25    26    1
    53    26    27    1
    54    26    28    1
    55    26    29    1
    56    28    54    1
    57    28    55    1
    58    28    56    1
    59    29    57    1
    60    29    58    1
    61    30    59    1
@<TRIPOS>SUBSTRUCTURE
     1 ZINC000062291520        1 TEMP              0 ****  ****    0 ROOT


##########                                Name:    ZINC000489986384
##########                DOCK_Rotatable_Bonds:                  11
##########                         Heavy_Atoms:                  31
##########                    Molecular_Weight:             415.492
##########                DOCK_Rotatable_Bonds:                  11
##########                       Formal_Charge:          -0.0499997
##########                     HBond_Acceptors:                   6
##########                        HBond_Donors:                   2
##########                         Heavy_Atoms:                  31
##########                          Grid_Score:          -34.789143
##########                     Grid_vdw_energy:          -34.779018
##########                      Grid_es_energy:           -0.010123
##########           Internal_energy_repulsive:           19.432636

@<TRIPOS>MOLECULE
ZINC000489986384
 56 59 1 0 0
SMALL
USER_CHARGES


@<TRIPOS>ATOM
      1 O1          1.8944   -0.7051   48.9125 O.2     1  ZINC000489986384   -0.5000
      2 C2          0.9347   -0.1035   49.3462 C.2     1  ZINC000489986384    0.4900
      3 C3         -0.4357   -0.3574   48.7730 C.3     1  ZINC000489986384    0.0900
      4 N4         -0.7620    0.6919   47.8042 N.pl3   1  ZINC000489986384   -0.4700
      5 C5         -0.1068    0.9396   46.6144 C.ar    1  ZINC000489986384    0.0700
      6 C6          0.9754    0.3591   45.9678 C.ar    1  ZINC000489986384   -0.1100
      7 C7          1.3939    0.8596   44.7530 C.ar    1  ZINC000489986384   -0.0900
      8 C8          0.7410    1.9384   44.1744 C.ar    1  ZINC000489986384   -0.1300
      9 C9         -0.3258    2.5228   44.7967 C.ar    1  ZINC000489986384   -0.0600
     10 C10        -0.7681    2.0322   46.0277 C.ar    1  ZINC000489986384    0.0500
     11 N11        -1.7707    2.3871   46.8719 N.2     1  ZINC000489986384   -0.4600
     12 C12        -1.7705    1.5991   47.9071 C.2     1  ZINC000489986384    0.2800
     13 C13        -2.7391    1.6860   49.0583 C.3     1  ZINC000489986384    0.1400
     14 O14        -3.7574    2.6410   48.7531 O.3     1  ZINC000489986384   -0.3000
     15 C15        -4.8127    2.7117   49.6064 C.ar    1  ZINC000489986384    0.1300
     16 C16        -4.8149    1.9605   50.7726 C.ar    1  ZINC000489986384   -0.2100
     17 C17        -5.8887    2.0345   51.6386 C.ar    1  ZINC000489986384   -0.0800
     18 C18        -6.9609    2.8561   51.3436 C.ar    1  ZINC000489986384   -0.1600
     19 C19        -6.9614    3.6055   50.1816 C.ar    1  ZINC000489986384   -0.0800
     20 C20        -5.8872    3.5397   49.3154 C.ar    1  ZINC000489986384   -0.1500
     21 N21         1.0929    0.7880   50.3445 N.am    1  ZINC000489986384   -0.7300
     22 C22         2.4252    1.0349   50.9016 C.3     1  ZINC000489986384    0.1300
     23 C23         2.5836    2.5266   51.2026 C.3     1  ZINC000489986384   -0.0600
     24 H24         3.5648    2.7064   51.6422 H       1  ZINC000489986384    0.0900
     25 C25         2.4523    3.3256   49.9046 C.3     1  ZINC000489986384    0.0800
     26 O26         2.4554    4.7231   50.2030 O.3     1  ZINC000489986384   -0.5700
     27 C27         1.5127    2.9603   52.1701 C.ar    1  ZINC000489986384   -0.0700
     28 C28         1.8017    3.0700   53.5174 C.ar    1  ZINC000489986384   -0.1100
     29 C29         0.8193    3.4679   54.4049 C.ar    1  ZINC000489986384   -0.1200
     30 C30        -0.4519    3.7564   53.9449 C.ar    1  ZINC000489986384   -0.1200
     31 C31        -0.7407    3.6476   52.5975 C.ar    1  ZINC000489986384   -0.1200
     32 C32         0.2428    3.2539   51.7094 C.ar    1  ZINC000489986384   -0.1100
     33 H33        -0.4476   -1.3274   48.2757 H       1  ZINC000489986384    0.1200
     34 H34        -1.1724   -0.3519   49.5763 H       1  ZINC000489986384    0.1200
     35 H35         1.4875   -0.4805   46.4141 H       1  ZINC000489986384    0.1200
     36 H36         2.2358    0.4090   44.2487 H       1  ZINC000489986384    0.1300
     37 H37         1.0798    2.3205   43.2227 H       1  ZINC000489986384    0.1300
     38 H38        -0.8263    3.3627   44.3378 H       1  ZINC000489986384    0.1300
     39 H39        -3.1945    0.7098   49.2245 H       1  ZINC000489986384    0.0800
     40 H40        -2.2076    1.9968   49.9578 H       1  ZINC000489986384    0.1000
     41 H41        -3.9779    1.3181   51.0032 H       1  ZINC000489986384    0.1300
     42 H42        -5.8908    1.4499   52.5466 H       1  ZINC000489986384    0.1300
     43 H43        -7.7996    2.9123   52.0217 H       1  ZINC000489986384    0.1200
     44 H44        -7.8002    4.2463   49.9532 H       1  ZINC000489986384    0.1300
     45 H45        -5.8881    4.1253   48.4080 H       1  ZINC000489986384    0.1300
     46 H46         0.3248    1.2663   50.6939 H       1  ZINC000489986384    0.4000
     47 H47         2.5456    0.4637   51.8221 H       1  ZINC000489986384    0.0800
     48 H48         3.1831    0.7272   50.1812 H       1  ZINC000489986384    0.0800
     49 H49         3.2905    3.0925   49.2479 H       1  ZINC000489986384    0.0500
     50 H50         1.5181    3.0621   49.4086 H       1  ZINC000489986384    0.0500
     51 H51         1.7350    5.0028   50.7843 H       1  ZINC000489986384    0.3800
     52 H52         2.7949    2.8446   53.8767 H       1  ZINC000489986384    0.1200
     53 H53         1.0449    3.5530   55.4576 H       1  ZINC000489986384    0.1200
     54 H54        -1.2196    4.0667   54.6384 H       1  ZINC000489986384    0.1200
     55 H55        -1.7340    3.8728   52.2382 H       1  ZINC000489986384    0.1200
     56 H56         0.0172    3.1688   50.6567 H       1  ZINC000489986384    0.1200
@<TRIPOS>BOND
     1     1     2    2
     2     2     3    1
     3     2    21   am
     4     3     4    1
     5     3    33    1
     6     3    34    1
     7     4    12    1
     8     4     5    1
     9     5    10   ar
    10     5     6   ar
    11     6     7   ar
    12     6    35    1
    13     7     8   ar
    14     7    36    1
    15     8     9   ar
    16     8    37    1
    17     9    10   ar
    18     9    38    1
    19    10    11    1
    20    11    12    2
    21    12    13    1
    22    13    14    1
    23    13    39    1
    24    13    40    1
    25    14    15    1
    26    15    20   ar
    27    15    16   ar
    28    16    17   ar
    29    16    41    1
    30    17    18   ar
    31    17    42    1
    32    18    19   ar
    33    18    43    1
    34    19    20   ar
    35    19    44    1
    36    20    45    1
    37    21    22    1
    38    21    46    1
    39    22    23    1
    40    22    47    1
    41    22    48    1
    42    23    24    1
    43    23    25    1
    44    23    27    1
    45    25    26    1
    46    25    49    1
    47    25    50    1
    48    26    51    1
    49    27    32   ar
    50    27    28   ar
    51    28    29   ar
    52    28    52    1
    53    29    30   ar
    54    29    53    1
    55    30    31   ar
    56    30    54    1
    57    31    32   ar
    58    31    55    1
    59    32    56    1
@<TRIPOS>SUBSTRUCTURE
     1 ZINC000489986384        1 TEMP              0 ****  ****    0 ROOT


##########                                Name:    ZINC001500042809
##########                DOCK_Rotatable_Bonds:                   9
##########                         Heavy_Atoms:                  24
##########                    Molecular_Weight:              346.45
##########                DOCK_Rotatable_Bonds:                   9
##########                       Formal_Charge:           0.0200001
##########                     HBond_Acceptors:                   6
##########                        HBond_Donors:                   2
##########                         Heavy_Atoms:                  24
##########                          Grid_Score:          -34.775002
##########                     Grid_vdw_energy:          -33.887077
##########                      Grid_es_energy:           -0.887924
##########           Internal_energy_repulsive:           16.000711

@<TRIPOS>MOLECULE
ZINC001500042809
 46 47 1 0 0
SMALL
USER_CHARGES


@<TRIPOS>ATOM
      1 C1        -13.9554    0.4319   52.6318 C.3     1  ZINC001500042809    0.0200
      2 O2        -12.9727   -0.2945   51.8911 O.3     1  ZINC001500042809   -0.3100
      3 C3        -11.6870    0.1274   51.9944 C.ar    1  ZINC001500042809    0.1600
      4 C4        -10.6452   -0.7493   51.7150 C.ar    1  ZINC001500042809   -0.1600
      5 C5         -9.3392   -0.3252   51.8192 C.ar    1  ZINC001500042809   -0.0200
      6 C6         -9.0621    0.9887   52.2059 C.ar    1  ZINC001500042809   -0.1800
      7 C7         -7.6637    1.4474   52.3187 C.2     1  ZINC001500042809    0.5600
      8 O8         -7.1927    1.6996   53.4109 O.2     1  ZINC001500042809   -0.5300
      9 N9         -6.9087    1.5865   51.2109 N.am    1  ZINC001500042809   -0.7300
     10 C10        -5.5201    2.0401   51.3229 C.3     1  ZINC001500042809    0.1300
     11 C11        -4.9019    2.1394   49.9270 C.3     1  ZINC001500042809   -0.1200
     12 H12        -5.1143    1.2270   49.3698 H       1  ZINC001500042809    0.0900
     13 C13        -5.4996    3.3387   49.1886 C.3     1  ZINC001500042809   -0.1500
     14 C14        -3.3877    2.3201   50.0516 C.3     1  ZINC001500042809    0.1300
     15 N15        -2.7076    1.3488   49.1911 N.am    1  ZINC001500042809   -0.7300
     16 C16        -1.9516    1.7752   48.1601 C.2     1  ZINC001500042809    0.5900
     17 O17        -1.8327    2.9671   47.9447 O.2     1  ZINC001500042809   -0.5200
     18 C18        -1.2725    0.8033   47.2980 C.2     1  ZINC001500042809   -0.2800
     19 C19        -0.7681   -0.4000   47.7040 C.2     1  ZINC001500042809   -0.0100
     20 C20        -0.8477   -0.8948   49.1253 C.3     1  ZINC001500042809   -0.1100
     21 C21        -0.1812   -1.1147   46.6868 C.2     1  ZINC001500042809   -0.1500
     22 C22        -0.2032   -0.5191   45.4886 C.2     1  ZINC001500042809   -0.2200
     23 S23        -0.9831    0.9959   45.5745 S.3     1  ZINC001500042809    0.1900
     24 C24       -10.1121    1.8654   52.4909 C.ar    1  ZINC001500042809   -0.0400
     25 C25       -11.4154    1.4350   52.3798 C.ar    1  ZINC001500042809   -0.2200
     26 H26       -13.7166    0.3862   53.6943 H       1  ZINC001500042809    0.0600
     27 H27       -13.9612    1.4718   52.3052 H       1  ZINC001500042809    0.0600
     28 H28       -14.9378   -0.0081   52.4609 H       1  ZINC001500042809    0.1000
     29 H29       -10.8602   -1.7646   51.4162 H       1  ZINC001500042809    0.1400
     30 H30        -8.5304   -1.0072   51.6025 H       1  ZINC001500042809    0.1400
     31 H31        -7.2847    1.3864   50.3395 H       1  ZINC001500042809    0.4000
     32 H32        -4.9525    1.3279   51.9219 H       1  ZINC001500042809    0.0800
     33 H33        -5.4952    3.0188   51.8018 H       1  ZINC001500042809    0.0800
     34 H34        -6.5783    3.2100   49.0999 H       1  ZINC001500042809    0.0600
     35 H35        -5.2872    4.2511   49.7459 H       1  ZINC001500042809    0.0600
     36 H36        -5.0591    3.4095   48.1941 H       1  ZINC001500042809    0.0600
     37 H37        -3.1159    3.3301   49.7450 H       1  ZINC001500042809    0.0800
     38 H38        -3.0868    2.1614   51.0871 H       1  ZINC001500042809    0.0800
     39 H39        -2.8013    0.3988   49.3635 H       1  ZINC001500042809    0.4000
     40 H40        -1.7687   -1.4616   49.2616 H       1  ZINC001500042809    0.0800
     41 H41         0.0082   -1.5362   49.3352 H       1  ZINC001500042809    0.0700
     42 H42        -0.8403   -0.0442   49.8069 H       1  ZINC001500042809    0.0900
     43 H43         0.2651   -2.0855   46.8433 H       1  ZINC001500042809    0.1500
     44 H44         0.2136   -0.9428   44.5868 H       1  ZINC001500042809    0.1700
     45 H45        -9.9018    2.8804   52.7944 H       1  ZINC001500042809    0.1300
     46 H46       -12.2275    2.1129   52.5968 H       1  ZINC001500042809    0.1400
@<TRIPOS>BOND
     1     1     2    1
     2     1    26    1
     3     1    27    1
     4     1    28    1
     5     2     3    1
     6     3    25   ar
     7     3     4   ar
     8     4     5   ar
     9     4    29    1
    10     5     6   ar
    11     5    30    1
    12     6     7    1
    13     6    24   ar
    14     7     8    2
    15     7     9   am
    16     9    10    1
    17     9    31    1
    18    10    11    1
    19    10    32    1
    20    10    33    1
    21    11    12    1
    22    11    13    1
    23    11    14    1
    24    13    34    1
    25    13    35    1
    26    13    36    1
    27    14    15    1
    28    14    37    1
    29    14    38    1
    30    15    16   am
    31    15    39    1
    32    16    17    2
    33    16    18    1
    34    18    23    1
    35    18    19    2
    36    19    20    1
    37    19    21    1
    38    20    40    1
    39    20    41    1
    40    20    42    1
    41    21    22    2
    42    21    43    1
    43    22    23    1
    44    22    44    1
    45    24    25   ar
    46    24    45    1
    47    25    46    1
@<TRIPOS>SUBSTRUCTURE
     1 ZINC001500042809        1 TEMP              0 ****  ****    0 ROOT


##########                                Name:    ZINC000110375116
##########                DOCK_Rotatable_Bonds:                  10
##########                         Heavy_Atoms:                  27
##########                    Molecular_Weight:             396.511
##########                DOCK_Rotatable_Bonds:                  10
##########                       Formal_Charge:        -2.23517e-07
##########                     HBond_Acceptors:                   9
##########                        HBond_Donors:                   0
##########                         Heavy_Atoms:                  27
##########                          Grid_Score:          -34.774727
##########                     Grid_vdw_energy:          -35.125744
##########                      Grid_es_energy:            0.351019
##########           Internal_energy_repulsive:           37.526329

@<TRIPOS>MOLECULE
ZINC000110375116
 55 56 1 0 0
SMALL
USER_CHARGES


@<TRIPOS>ATOM
      1 C1        -10.7547   -0.1896   51.9142 C.3     1  ZINC000110375116   -0.1700
      2 C2         -9.3038   -0.6751   51.8945 C.3     1  ZINC000110375116    0.1000
      3 N3         -8.4169    0.4200   52.2950 N.am    1  ZINC000110375116   -0.6200
      4 C4         -8.8094    1.3201   53.3821 C.3     1  ZINC000110375116    0.1100
      5 C5         -9.5054    2.5514   52.7986 C.3     1  ZINC000110375116   -0.1700
      6 C6         -7.2400    0.5994   51.6633 C.2     1  ZINC000110375116    0.5100
      7 O7         -6.9157   -0.1448   50.7622 O.2     1  ZINC000110375116   -0.5300
      8 C8         -6.3269    1.7249   52.0765 C.3     1  ZINC000110375116   -0.1400
      9 C9         -5.6997    2.3560   50.8318 C.3     1  ZINC000110375116   -0.0900
     10 C10        -4.4072    1.6161   50.4811 C.3     1  ZINC000110375116   -0.1400
     11 C11        -3.8668    2.1402   49.1757 C.2     1  ZINC000110375116    0.5200
     12 O12        -4.4448    3.0349   48.5955 O.2     1  ZINC000110375116   -0.5300
     13 N13        -2.7412    1.6147   48.6527 N.am    1  ZINC000110375116   -0.6200
     14 C14        -2.2004    2.1188   47.3826 C.3     1  ZINC000110375116    0.0900
     15 C15        -0.7445    2.5468   47.6053 C.3     1  ZINC000110375116    0.1000
     16 N16        -0.0359    1.4597   48.2952 N.am    1  ZINC000110375116   -1.0000
     17 S17         1.3477    0.8148   47.6531 S.o2    1  ZINC000110375116    2.7000
     18 O18         2.2273    1.9057   47.4178 O.2     1  ZINC000110375116   -0.9400
     19 O19         1.6889   -0.2967   48.4699 O.2     1  ZINC000110375116   -0.9500
     20 C20         0.9325    0.1604   46.0706 C.ar    1  ZINC000110375116   -0.7400
     21 C21         1.6805    0.4978   44.9534 C.ar    1  ZINC000110375116    0.0200
     22 C22         1.3174   -0.0414   43.7284 C.ar    1  ZINC000110375116   -0.1900
     23 C23         0.2298   -0.8913   43.6627 C.ar    1  ZINC000110375116    0.1500
     24 N24        -0.4591   -1.1904   44.7468 N.ar    1  ZINC000110375116   -0.4900
     25 C25        -0.1396   -0.7006   45.9286 C.ar    1  ZINC000110375116    0.2000
     26 C26        -0.5767    0.9556   49.5653 C.3     1  ZINC000110375116    0.1000
     27 C27        -2.0295    0.5315   49.3453 C.3     1  ZINC000110375116    0.1000
     28 H28       -11.4145   -1.0044   51.6162 H       1  ZINC000110375116    0.0700
     29 H29       -11.0142    0.1386   52.9206 H       1  ZINC000110375116    0.0600
     30 H30       -10.8687    0.6428   51.2199 H       1  ZINC000110375116    0.0600
     31 H31        -9.1897   -1.5075   52.5888 H       1  ZINC000110375116    0.0800
     32 H32        -9.0442   -1.0033   50.8879 H       1  ZINC000110375116    0.0800
     33 H33        -9.4924    0.8014   54.0548 H       1  ZINC000110375116    0.0800
     34 H34        -7.9226    1.6315   53.9341 H       1  ZINC000110375116    0.0800
     35 H35        -9.7975    3.2211   53.6075 H       1  ZINC000110375116    0.0700
     36 H36        -8.8224    3.0702   52.1260 H       1  ZINC000110375116    0.0500
     37 H37       -10.3922    2.2400   52.2467 H       1  ZINC000110375116    0.0600
     38 H38        -6.9003    2.4785   52.6162 H       1  ZINC000110375116    0.0900
     39 H39        -5.5398    1.3357   52.7224 H       1  ZINC000110375116    0.0900
     40 H40        -6.3973    2.2842   49.9973 H       1  ZINC000110375116    0.0800
     41 H41        -5.4762    3.4043   51.0293 H       1  ZINC000110375116    0.0800
     42 H42        -3.6716    1.7763   51.2693 H       1  ZINC000110375116    0.1000
     43 H43        -4.6130    0.5498   50.3873 H       1  ZINC000110375116    0.1000
     44 H44        -2.2391    1.3312   46.6301 H       1  ZINC000110375116    0.0800
     45 H45        -2.7866    2.9754   47.0497 H       1  ZINC000110375116    0.1000
     46 H46        -0.2692    2.7411   46.6439 H       1  ZINC000110375116    0.1100
     47 H47        -0.7177    3.4477   48.2182 H       1  ZINC000110375116    0.0800
     48 H48         2.5257    1.1652   45.0349 H       1  ZINC000110375116    0.1500
     49 H49         1.8773    0.1999   42.8371 H       1  ZINC000110375116    0.1500
     50 H50        -0.0597   -1.3151   42.7125 H       1  ZINC000110375116    0.1700
     51 H51        -0.7274   -0.9683   46.7941 H       1  ZINC000110375116    0.1700
     52 H52         0.0095    0.0990   49.8982 H       1  ZINC000110375116    0.1100
     53 H53        -0.5380    1.7432   50.3177 H       1  ZINC000110375116    0.0800
     54 H54        -2.5036    0.3374   50.3075 H       1  ZINC000110375116    0.1100
     55 H55        -2.0589   -0.3692   48.7320 H       1  ZINC000110375116    0.0800
@<TRIPOS>BOND
     1     1     2    1
     2     1    28    1
     3     1    29    1
     4     1    30    1
     5     2     3    1
     6     2    31    1
     7     2    32    1
     8     3     4    1
     9     3     6   am
    10     4     5    1
    11     4    33    1
    12     4    34    1
    13     5    35    1
    14     5    36    1
    15     5    37    1
    16     6     7    2
    17     6     8    1
    18     8     9    1
    19     8    38    1
    20     8    39    1
    21     9    10    1
    22     9    40    1
    23     9    41    1
    24    10    11    1
    25    10    42    1
    26    10    43    1
    27    11    12    2
    28    11    13   am
    29    13    27    1
    30    13    14    1
    31    14    15    1
    32    14    44    1
    33    14    45    1
    34    15    16    1
    35    15    46    1
    36    15    47    1
    37    16    17   am
    38    16    26    1
    39    17    18    2
    40    17    19    2
    41    17    20    1
    42    20    25   ar
    43    20    21   ar
    44    21    22   ar
    45    21    48    1
    46    22    23   ar
    47    22    49    1
    48    23    24   ar
    49    23    50    1
    50    24    25   ar
    51    25    51    1
    52    26    27    1
    53    26    52    1
    54    26    53    1
    55    27    54    1
    56    27    55    1
@<TRIPOS>SUBSTRUCTURE
     1 ZINC000110375116        1 TEMP              0 ****  ****    0 ROOT


##########                                Name:    ZINC001124460178
##########                DOCK_Rotatable_Bonds:                  12
##########                         Heavy_Atoms:                  22
##########                    Molecular_Weight:             328.479
##########                DOCK_Rotatable_Bonds:                  12
##########                       Formal_Charge:          -0.0100003
##########                     HBond_Acceptors:                   7
##########                        HBond_Donors:                   2
##########                         Heavy_Atoms:                  22
##########                          Grid_Score:          -34.751705
##########                     Grid_vdw_energy:          -34.420879
##########                      Grid_es_energy:           -0.330825
##########           Internal_energy_repulsive:           14.641336

@<TRIPOS>MOLECULE
ZINC001124460178
 50 50 1 0 0
SMALL
USER_CHARGES


@<TRIPOS>ATOM
      1 C1          0.0752   -1.5320   48.2616 C.3     1  ZINC001124460178   -0.0700
      2 C2         -0.5428   -0.2290   48.6994 C.2     1  ZINC001124460178    0.3100
      3 N3          0.1738    0.8519   48.8050 N.2     1  ZINC001124460178   -0.5000
      4 S4         -0.8973    2.0679   49.3173 S.3     1  ZINC001124460178    0.1800
      5 C5         -2.2724    1.0305   49.3599 C.2     1  ZINC001124460178    0.3400
      6 N6         -3.5682    1.3640   49.7104 N.pl3   1  ZINC001124460178   -0.6600
      7 C7         -3.8108    2.3556   50.7611 C.3     1  ZINC001124460178    0.0900
      8 C8         -5.3140    2.4601   51.0265 C.3     1  ZINC001124460178    0.0800
      9 H9         -5.5231    3.3783   51.5753 H       1  ZINC001124460178    0.1200
     10 O10        -6.0171    2.4780   49.7826 O.3     1  ZINC001124460178   -0.5500
     11 C11        -5.7708    1.2565   51.8533 C.3     1  ZINC001124460178    0.0900
     12 N12        -7.1683    1.4404   52.2526 N.am    1  ZINC001124460178   -0.6100
     13 C13        -7.5999    2.7086   52.8457 C.3     1  ZINC001124460178    0.0800
     14 C14        -8.0568    0.4428   52.0745 C.2     1  ZINC001124460178    0.5100
     15 O15        -7.6992   -0.6076   51.5850 O.2     1  ZINC001124460178   -0.5400
     16 C16        -9.4948    0.6326   52.4836 C.3     1  ZINC001124460178   -0.1400
     17 C17       -10.3270   -0.5512   51.9864 C.3     1  ZINC001124460178   -0.1100
     18 C18       -11.8060   -0.2950   52.2826 C.3     1  ZINC001124460178   -0.1200
     19 C19       -12.4229    0.5117   51.1382 C.3     1  ZINC001124460178   -0.1200
     20 C20       -13.9402    0.5804   51.3227 C.3     1  ZINC001124460178   -0.1000
     21 C21       -14.2660    1.4173   52.5614 C.3     1  ZINC001124460178   -0.1500
     22 C22       -14.5752    1.2261   50.0895 C.3     1  ZINC001124460178   -0.1500
     23 N23        -1.8224   -0.1472   48.9811 N.2     1  ZINC001124460178   -0.5800
     24 H24         0.0233   -1.6120   47.1758 H       1  ZINC001124460178    0.0900
     25 H25         1.1175   -1.5645   48.5788 H       1  ZINC001124460178    0.0900
     26 H26        -0.4683   -2.3618   48.7134 H       1  ZINC001124460178    0.0900
     27 H27        -4.3164    0.9411   49.2604 H       1  ZINC001124460178    0.4200
     28 H28        -3.3010    2.0493   51.6746 H       1  ZINC001124460178    0.0800
     29 H29        -3.4301    3.3253   50.4404 H       1  ZINC001124460178    0.0900
     30 H30        -5.6594    3.1034   49.1375 H       1  ZINC001124460178    0.3800
     31 H31        -5.6801    0.3496   51.2555 H       1  ZINC001124460178    0.0900
     32 H32        -5.1472    1.1692   52.7429 H       1  ZINC001124460178    0.1000
     33 H33        -7.9267    3.3859   52.0567 H       1  ZINC001124460178    0.0600
     34 H34        -8.4260    2.5257   53.5329 H       1  ZINC001124460178    0.0800
     35 H35        -6.7682    3.1574   53.3885 H       1  ZINC001124460178    0.0800
     36 H36        -9.5588    0.6908   53.5702 H       1  ZINC001124460178    0.0900
     37 H37        -9.8781    1.5550   52.0472 H       1  ZINC001124460178    0.0900
     38 H38       -10.1866   -0.6681   50.9117 H       1  ZINC001124460178    0.0700
     39 H39       -10.0065   -1.4600   52.4956 H       1  ZINC001124460178    0.0700
     40 H40       -12.3276   -1.2473   52.3783 H       1  ZINC001124460178    0.0600
     41 H41       -11.8985    0.2651   53.2130 H       1  ZINC001124460178    0.0600
     42 H42       -12.0105    1.5206   51.1413 H       1  ZINC001124460178    0.0600
     43 H43       -12.1940    0.0284   50.1884 H       1  ZINC001124460178    0.0600
     44 H44       -14.3367   -0.4270   51.4503 H       1  ZINC001124460178    0.0700
     45 H45       -13.8695    2.4247   52.4338 H       1  ZINC001124460178    0.0500
     46 H46       -15.3469    1.4662   52.6928 H       1  ZINC001124460178    0.0500
     47 H47       -13.8137    0.9574   53.4399 H       1  ZINC001124460178    0.0500
     48 H48       -14.3430    0.6298   49.2071 H       1  ZINC001124460178    0.0600
     49 H49       -15.6561    1.2749   50.2209 H       1  ZINC001124460178    0.0500
     50 H50       -14.1787    2.2333   49.9619 H       1  ZINC001124460178    0.0500
@<TRIPOS>BOND
     1     1     2    1
     2     1    24    1
     3     1    25    1
     4     1    26    1
     5     2    23    1
     6     2     3    2
     7     3     4    1
     8     4     5    1
     9     5     6    1
    10     5    23    2
    11     6     7    1
    12     6    27    1
    13     7     8    1
    14     7    28    1
    15     7    29    1
    16     8     9    1
    17     8    10    1
    18     8    11    1
    19    10    30    1
    20    11    12    1
    21    11    31    1
    22    11    32    1
    23    12    13    1
    24    12    14   am
    25    13    33    1
    26    13    34    1
    27    13    35    1
    28    14    15    2
    29    14    16    1
    30    16    17    1
    31    16    36    1
    32    16    37    1
    33    17    18    1
    34    17    38    1
    35    17    39    1
    36    18    19    1
    37    18    40    1
    38    18    41    1
    39    19    20    1
    40    19    42    1
    41    19    43    1
    42    20    21    1
    43    20    22    1
    44    20    44    1
    45    21    45    1
    46    21    46    1
    47    21    47    1
    48    22    48    1
    49    22    49    1
    50    22    50    1
@<TRIPOS>SUBSTRUCTURE
     1 ZINC001124460178        1 TEMP              0 ****  ****    0 ROOT


##########                                Name:    ZINC000499369364
##########                DOCK_Rotatable_Bonds:                   9
##########                         Heavy_Atoms:                  25
##########                    Molecular_Weight:             384.527
##########                DOCK_Rotatable_Bonds:                   9
##########                       Formal_Charge:        -5.88596e-07
##########                     HBond_Acceptors:                  10
##########                        HBond_Donors:                   1
##########                         Heavy_Atoms:                  25
##########                          Grid_Score:          -34.701633
##########                     Grid_vdw_energy:          -33.838802
##########                      Grid_es_energy:           -0.862832
##########           Internal_energy_repulsive:           31.388454

@<TRIPOS>MOLECULE
ZINC000499369364
 49 51 1 0 0
SMALL
USER_CHARGES


@<TRIPOS>ATOM
      1 C1          2.8955    2.5301   46.8138 C.3     1  ZINC000499369364   -0.1500
      2 C2          2.5940    3.1497   45.4477 C.3     1  ZINC000499369364   -0.1000
      3 C3          3.0140    2.1780   44.3431 C.3     1  ZINC000499369364   -0.1500
      4 C4          1.0945    3.4320   45.3356 C.3     1  ZINC000499369364    0.1500
      5 H5          0.7952    4.1243   46.1226 H       1  ZINC000499369364    0.0900
      6 C6          0.7929    4.0515   43.9696 C.3     1  ZINC000499369364   -0.1700
      7 N7          0.3497    2.1786   45.4786 N.am    1  ZINC000499369364   -0.7200
      8 C8         -0.0241    1.7525   46.7015 C.2     1  ZINC000499369364    0.5100
      9 O9          0.2549    2.4075   47.6833 O.2     1  ZINC000499369364   -0.5100
     10 C10        -0.7886    0.4622   46.8487 C.3     1  ZINC000499369364    0.1200
     11 H11        -1.5011    0.3825   46.0276 H       1  ZINC000499369364    0.1200
     12 C12         0.2060   -0.7176   46.7599 C.3     1  ZINC000499369364   -0.0800
     13 S13         0.4860   -1.0896   48.5423 S.3     1  ZINC000499369364   -0.2400
     14 C14        -1.2167   -0.5998   49.0417 C.3     1  ZINC000499369364    0.1400
     15 N15        -1.5233    0.4945   48.1042 N.am    1  ZINC000499369364   -0.6000
     16 C16        -2.4230    1.4574   48.3865 C.2     1  ZINC000499369364    0.5600
     17 O17        -2.6421    2.3376   47.5814 O.2     1  ZINC000499369364   -0.5000
     18 C18        -3.1568    1.4403   49.7027 C.3     1  ZINC000499369364   -0.1500
     19 S19        -4.4386    2.7183   49.6953 S.3     1  ZINC000499369364    0.1300
     20 C20        -5.6800    1.9120   50.6511 C.2     1  ZINC000499369364    0.2000
     21 N21        -5.6961    0.6441   51.0014 N.2     1  ZINC000499369364   -0.3400
     22 N22        -6.7444    0.3827   51.6958 N.2     1  ZINC000499369364   -0.0300
     23 N23        -7.4632    1.4432   51.8386 N.2     1  ZINC000499369364   -0.0800
     24 N24        -6.7941    2.4820   51.1681 N.pl3   1  ZINC000499369364   -0.3300
     25 C25        -7.2162    3.8795   51.0470 C.3     1  ZINC000499369364    0.0500
     26 C26        -8.6544    4.2200   51.4431 C.3     1  ZINC000499369364   -0.1500
     27 C27        -7.4917    4.6489   52.3405 C.3     1  ZINC000499369364   -0.1600
     28 H28         3.9638    2.3289   46.8937 H       1  ZINC000499369364    0.0600
     29 H29         2.5963    3.2224   47.6007 H       1  ZINC000499369364    0.0600
     30 H30         2.3413    1.5976   46.9202 H       1  ZINC000499369364    0.0600
     31 H31         3.1483    4.0822   45.3414 H       1  ZINC000499369364    0.0800
     32 H32         4.0823    1.9768   44.4230 H       1  ZINC000499369364    0.0600
     33 H33         2.4597    1.2455   44.4494 H       1  ZINC000499369364    0.0600
     34 H34         2.7991    2.6193   43.3699 H       1  ZINC000499369364    0.0500
     35 H35         1.0921    3.3593   43.1827 H       1  ZINC000499369364    0.0600
     36 H36        -0.2755    4.2526   43.8897 H       1  ZINC000499369364    0.0600
     37 H37         1.3470    4.9841   43.8632 H       1  ZINC000499369364    0.0700
     38 H38         0.1254    1.6553   44.6932 H       1  ZINC000499369364    0.4000
     39 H39        -0.2416   -1.5694   46.2478 H       1  ZINC000499369364    0.1200
     40 H40         1.1325   -0.4129   46.2733 H       1  ZINC000499369364    0.1300
     41 H41        -1.9117   -1.4292   48.9107 H       1  ZINC000499369364    0.1100
     42 H42        -1.2298   -0.2418   50.0712 H       1  ZINC000499369364    0.1200
     43 H43        -3.6183    0.4637   49.8489 H       1  ZINC000499369364    0.1300
     44 H44        -2.4542    1.6352   50.5130 H       1  ZINC000499369364    0.1300
     45 H45        -6.7784    4.4325   50.2160 H       1  ZINC000499369364    0.1600
     46 H46        -9.1630    4.9970   50.8725 H       1  ZINC000499369364    0.1200
     47 H47        -9.2863    3.4041   51.7938 H       1  ZINC000499369364    0.1200
     48 H48        -7.3589    4.1152   53.2815 H       1  ZINC000499369364    0.1100
     49 H49        -7.2355    5.7082   52.3603 H       1  ZINC000499369364    0.1200
@<TRIPOS>BOND
     1     1     2    1
     2     1    28    1
     3     1    29    1
     4     1    30    1
     5     2     3    1
     6     2     4    1
     7     2    31    1
     8     3    32    1
     9     3    33    1
    10     3    34    1
    11     4     5    1
    12     4     6    1
    13     4     7    1
    14     6    35    1
    15     6    36    1
    16     6    37    1
    17     7     8   am
    18     7    38    1
    19     8     9    2
    20     8    10    1
    21    10    11    1
    22    10    15    1
    23    10    12    1
    24    12    13    1
    25    12    39    1
    26    12    40    1
    27    13    14    1
    28    14    15    1
    29    14    41    1
    30    14    42    1
    31    15    16   am
    32    16    17    2
    33    16    18    1
    34    18    19    1
    35    18    43    1
    36    18    44    1
    37    19    20    1
    38    20    24    1
    39    20    21    2
    40    21    22    1
    41    22    23    2
    42    23    24    1
    43    24    25    1
    44    25    27    1
    45    25    26    1
    46    25    45    1
    47    26    27    1
    48    26    46    1
    49    26    47    1
    50    27    48    1
    51    27    49    1
@<TRIPOS>SUBSTRUCTURE
     1 ZINC000499369364        1 TEMP              0 ****  ****    0 ROOT


##########                                Name:    ZINC000550952205
##########                DOCK_Rotatable_Bonds:                   7
##########                         Heavy_Atoms:                  28
##########                    Molecular_Weight:             407.484
##########                DOCK_Rotatable_Bonds:                   7
##########                       Formal_Charge:        -2.68221e-07
##########                     HBond_Acceptors:                   8
##########                        HBond_Donors:                   2
##########                         Heavy_Atoms:                  28
##########                          Grid_Score:          -34.648758
##########                     Grid_vdw_energy:          -34.470600
##########                      Grid_es_energy:           -0.178158
##########           Internal_energy_repulsive:            8.300975

@<TRIPOS>MOLECULE
ZINC000550952205
 51 54 1 0 0
SMALL
USER_CHARGES


@<TRIPOS>ATOM
      1 O1         -2.3737    2.9336   51.3990 O.2     1  ZINC000550952205   -0.5100
      2 C2         -3.0843    2.7828   50.4268 C.2     1  ZINC000550952205    0.5100
      3 N3         -2.5423    2.7599   49.1930 N.am    1  ZINC000550952205   -0.7000
      4 C4         -1.0961    2.9228   49.0251 C.3     1  ZINC000550952205    0.1200
      5 C5         -0.5042    1.6430   48.4313 C.3     1  ZINC000550952205   -0.0900
      6 H6          0.5822    1.6680   48.5169 H       1  ZINC000550952205    0.1000
      7 C7         -1.0420    0.4474   49.1697 C.3     1  ZINC000550952205   -0.1300
      8 C8         -0.0112   -0.6928   49.2755 C.3     1  ZINC000550952205   -0.1200
      9 C9          0.7767   -0.9091   47.9695 C.3     1  ZINC000550952205   -0.1300
     10 C10        -0.0981   -0.8226   46.7483 C.3     1  ZINC000550952205   -0.1500
     11 C11        -0.0420    0.6204   46.2065 C.3     1  ZINC000550952205    0.3000
     12 F12         1.2751    1.0847   46.2900 F       1  ZINC000550952205   -0.2000
     13 F13        -0.4362    0.6162   44.8642 F       1  ZINC000550952205   -0.2000
     14 C14        -0.9044    1.5277   46.9462 C.3     1  ZINC000550952205   -0.1700
     15 C15        -4.5584    2.6167   50.5980 C.2     1  ZINC000550952205    0.5100
     16 O16        -5.3007    2.7712   49.6500 O.2     1  ZINC000550952205   -0.4900
     17 N17        -5.0646    2.2951   51.8050 N.am    1  ZINC000550952205   -0.6400
     18 C18        -6.4445    2.1396   51.9652 C.ar    1  ZINC000550952205    0.1500
     19 C19        -7.2741    3.2594   51.9969 C.ar    1  ZINC000550952205   -0.1200
     20 C20        -8.6193    3.1233   52.1521 C.ar    1  ZINC000550952205   -0.0400
     21 C21        -9.1994    1.8451   52.2840 C.ar    1  ZINC000550952205    0.0800
     22 N22       -10.4919    1.5013   52.4449 N.2     1  ZINC000550952205   -0.4700
     23 C23       -10.7717    0.2570   52.5417 C.2     1  ZINC000550952205    0.1200
     24 C24       -12.1654   -0.2867   52.7236 C.3     1  ZINC000550952205   -0.1100
     25 C25       -12.6321   -0.5707   54.1528 C.3     1  ZINC000550952205   -0.1500
     26 C26       -13.1989    0.6260   53.3864 C.3     1  ZINC000550952205   -0.1500
     27 S27        -9.3699   -0.7104   52.4383 S.3     1  ZINC000550952205    0.1200
     28 C28        -8.3637    0.7226   52.2512 C.ar    1  ZINC000550952205   -0.1700
     29 C29        -6.9896    0.8735   52.0866 C.ar    1  ZINC000550952205   -0.0700
     30 H30        -3.1098    2.6354   48.4162 H       1  ZINC000550952205    0.4200
     31 H31        -0.9002    3.7592   48.3540 H       1  ZINC000550952205    0.0800
     32 H32        -0.6377    3.1195   49.9942 H       1  ZINC000550952205    0.0800
     33 H33        -1.3324    0.7547   50.1744 H       1  ZINC000550952205    0.0700
     34 H34        -1.9243    0.0777   48.6472 H       1  ZINC000550952205    0.0700
     35 H35         0.6914   -0.4583   50.0753 H       1  ZINC000550952205    0.0700
     36 H36        -0.5328   -1.6159   49.5284 H       1  ZINC000550952205    0.0700
     37 H37         1.5569   -0.1513   47.8986 H       1  ZINC000550952205    0.0800
     38 H38         1.2449   -1.8930   47.9989 H       1  ZINC000550952205    0.0700
     39 H39         0.2654   -1.5136   45.9877 H       1  ZINC000550952205    0.0900
     40 H40        -1.1247   -1.0740   47.0147 H       1  ZINC000550952205    0.1000
     41 H41        -1.9304    1.1642   46.8897 H       1  ZINC000550952205    0.1000
     42 H42        -0.8557    2.5147   46.4860 H       1  ZINC000550952205    0.1000
     43 H43        -4.4714    2.1715   52.5624 H       1  ZINC000550952205    0.4300
     44 H44        -6.8448    4.2455   51.8976 H       1  ZINC000550952205    0.1400
     45 H45        -9.2473    4.0016   52.1749 H       1  ZINC000550952205    0.1400
     46 H46       -12.5154   -0.9556   51.9372 H       1  ZINC000550952205    0.1300
     47 H47       -13.2891   -1.4267   54.3070 H       1  ZINC000550952205    0.1000
     48 H48       -11.9310   -0.3642   54.9615 H       1  ZINC000550952205    0.1100
     49 H49       -12.8710    1.6199   53.6910 H       1  ZINC000550952205    0.1000
     50 H50       -14.2291    0.5575   53.0365 H       1  ZINC000550952205    0.1100
     51 H51        -6.3498    0.0040   52.0565 H       1  ZINC000550952205    0.1400
@<TRIPOS>BOND
     1     1     2    2
     2     2     3   am
     3     2    15    1
     4     3     4    1
     5     3    30    1
     6     4     5    1
     7     4    31    1
     8     4    32    1
     9     5     6    1
    10     5    14    1
    11     5     7    1
    12     7     8    1
    13     7    33    1
    14     7    34    1
    15     8     9    1
    16     8    35    1
    17     8    36    1
    18     9    10    1
    19     9    37    1
    20     9    38    1
    21    10    11    1
    22    10    39    1
    23    10    40    1
    24    11    12    1
    25    11    13    1
    26    11    14    1
    27    14    41    1
    28    14    42    1
    29    15    16    2
    30    15    17   am
    31    17    18    1
    32    17    43    1
    33    18    29   ar
    34    18    19   ar
    35    19    20   ar
    36    19    44    1
    37    20    21   ar
    38    20    45    1
    39    21    28   ar
    40    21    22    1
    41    22    23    2
    42    23    24    1
    43    23    27    1
    44    24    26    1
    45    24    25    1
    46    24    46    1
    47    25    26    1
    48    25    47    1
    49    25    48    1
    50    26    49    1
    51    26    50    1
    52    27    28    1
    53    28    29   ar
    54    29    51    1
@<TRIPOS>SUBSTRUCTURE
     1 ZINC000550952205        1 TEMP              0 ****  ****    0 ROOT


##########                                Name:    ZINC001570985666
##########                DOCK_Rotatable_Bonds:                   7
##########                         Heavy_Atoms:                  26
##########                    Molecular_Weight:             357.415
##########                DOCK_Rotatable_Bonds:                   7
##########                       Formal_Charge:          -0.0100001
##########                     HBond_Acceptors:                   9
##########                        HBond_Donors:                   3
##########                         Heavy_Atoms:                  26
##########                          Grid_Score:          -34.603516
##########                     Grid_vdw_energy:          -34.489014
##########                      Grid_es_energy:           -0.114501
##########           Internal_energy_repulsive:           12.408960

@<TRIPOS>MOLECULE
ZINC001570985666
 49 52 1 0 0
SMALL
USER_CHARGES


@<TRIPOS>ATOM
      1 C1         -1.0476    3.1205   47.8532 C.3     1  ZINC001570985666   -0.1600
      2 C2         -1.5305    1.6698   47.7945 C.3     1  ZINC001570985666    0.1300
      3 H3         -2.5632    1.6368   47.4474 H       1  ZINC001570985666    0.0800
      4 C4         -1.4258    1.0248   49.1927 C.3     1  ZINC001570985666    0.1400
      5 H5         -0.6880    1.5454   49.8032 H       1  ZINC001570985666    0.1100
      6 N6         -2.7312    1.0142   49.8575 N.am    1  ZINC001570985666   -0.7200
      7 C7         -3.0620    2.0053   50.7087 C.2     1  ZINC001570985666    0.6000
      8 O8         -2.2775    2.9095   50.9237 O.2     1  ZINC001570985666   -0.5300
      9 C9         -4.3740    1.9937   51.3787 C.2     1  ZINC001570985666   -0.2300
     10 C10        -4.8612    2.9484   52.2450 C.2     1  ZINC001570985666    0.0700
     11 N11        -6.0943    2.5719   52.6381 N.pl3   1  ZINC001570985666   -0.5200
     12 C12        -6.4173    1.3804   52.0369 C.2     1  ZINC001570985666    0.0600
     13 C13        -7.6860    0.6388   52.2130 C.2     1  ZINC001570985666    0.2500
     14 N14        -8.7308    1.0209   52.9228 N.2     1  ZINC001570985666   -0.3100
     15 N15        -9.6304    0.1033   52.8250 N.pl3   1  ZINC001570985666   -0.2200
     16 N16        -9.1904   -0.8473   52.0769 N.2     1  ZINC001570985666   -0.0400
     17 N17        -8.0005   -0.5506   51.6776 N.2     1  ZINC001570985666   -0.2600
     18 C18        -5.3793    1.0004   51.2498 C.2     1  ZINC001570985666   -0.0600
     19 C19        -0.9554   -0.4191   48.8749 C.3     1  ZINC001570985666   -0.1500
     20 C20        -0.0211   -0.1820   47.6621 C.3     1  ZINC001570985666    0.1000
     21 N21        -0.6729    0.8937   46.8870 N.am    1  ZINC001570985666   -0.6200
     22 C22        -0.5063    1.1241   45.5695 C.2     1  ZINC001570985666    0.5300
     23 O23        -1.0938    2.0407   45.0352 O.2     1  ZINC001570985666   -0.5300
     24 C24         0.4102    0.2429   44.7605 C.3     1  ZINC001570985666   -0.1300
     25 C25         1.8622    0.5163   45.1576 C.3     1  ZINC001570985666   -0.1000
     26 C26         2.8797    0.1465   44.0654 C.3     1  ZINC001570985666   -0.1300
     27 C27         3.6364    1.4301   44.4459 C.3     1  ZINC001570985666   -0.1400
     28 C28         2.2920    1.9786   44.9526 C.3     1  ZINC001570985666   -0.1400
     29 H29        -1.1191    3.5676   46.8617 H       1  ZINC001570985666    0.0700
     30 H30        -1.6688    3.6822   48.5508 H       1  ZINC001570985666    0.0700
     31 H31        -0.0109    3.1450   48.1890 H       1  ZINC001570985666    0.0600
     32 H32        -3.3575    0.2937   49.6852 H       1  ZINC001570985666    0.4000
     33 H33        -4.3437    3.8439   52.5559 H       1  ZINC001570985666    0.1800
     34 H34        -6.6635    3.0648   53.2495 H       1  ZINC001570985666    0.4300
     35 H35       -10.5026    0.1254   53.2490 H       1  ZINC001570985666    0.4800
     36 H36        -5.3256    0.1073   50.6449 H       1  ZINC001570985666    0.1600
     37 H37        -0.4055   -0.8444   49.7145 H       1  ZINC001570985666    0.0900
     38 H38        -1.7984   -1.0532   48.6006 H       1  ZINC001570985666    0.0800
     39 H39         0.9652    0.1362   47.9996 H       1  ZINC001570985666    0.0800
     40 H40         0.0566   -1.0875   47.0605 H       1  ZINC001570985666    0.0800
     41 H41         0.1718   -0.8031   44.9530 H       1  ZINC001570985666    0.0900
     42 H42         0.2771    0.4568   43.7001 H       1  ZINC001570985666    0.0900
     43 H43         2.1134    0.1214   46.1420 H       1  ZINC001570985666    0.1000
     44 H44         3.4352   -0.7670   44.2775 H       1  ZINC001570985666    0.0700
     45 H45         2.4649    0.1666   43.0575 H       1  ZINC001570985666    0.0800
     46 H46         4.3739    1.2844   45.2351 H       1  ZINC001570985666    0.0800
     47 H47         4.0341    1.9729   43.5884 H       1  ZINC001570985666    0.0700
     48 H48         1.7167    2.4996   44.1873 H       1  ZINC001570985666    0.0800
     49 H49         2.3732    2.5441   45.8808 H       1  ZINC001570985666    0.0700
@<TRIPOS>BOND
     1     1     2    1
     2     1    29    1
     3     1    30    1
     4     1    31    1
     5     2     3    1
     6     2    21    1
     7     2     4    1
     8     4     5    1
     9     4     6    1
    10     4    19    1
    11     6     7   am
    12     6    32    1
    13     7     8    2
    14     7     9    1
    15     9    18    1
    16     9    10    2
    17    10    11    1
    18    10    33    1
    19    11    12    1
    20    11    34    1
    21    12    13    1
    22    12    18    2
    23    13    17    1
    24    13    14    2
    25    14    15    1
    26    15    16    1
    27    15    35    1
    28    16    17    2
    29    18    36    1
    30    19    20    1
    31    19    37    1
    32    19    38    1
    33    20    21    1
    34    20    39    1
    35    20    40    1
    36    21    22   am
    37    22    23    2
    38    22    24    1
    39    24    25    1
    40    24    41    1
    41    24    42    1
    42    25    28    1
    43    25    26    1
    44    25    43    1
    45    26    27    1
    46    26    44    1
    47    26    45    1
    48    27    28    1
    49    27    46    1
    50    27    47    1
    51    28    48    1
    52    28    49    1
@<TRIPOS>SUBSTRUCTURE
     1 ZINC001570985666        1 TEMP              0 ****  ****    0 ROOT


##########                                Name:    ZINC000957079511
##########                DOCK_Rotatable_Bonds:                   8
##########                         Heavy_Atoms:                  25
##########                    Molecular_Weight:             362.453
##########                DOCK_Rotatable_Bonds:                   8
##########                       Formal_Charge:        -4.32134e-07
##########                     HBond_Acceptors:                   8
##########                        HBond_Donors:                   2
##########                         Heavy_Atoms:                  25
##########                          Grid_Score:          -34.508232
##########                     Grid_vdw_energy:          -33.773186
##########                      Grid_es_energy:           -0.735048
##########           Internal_energy_repulsive:            9.321417

@<TRIPOS>MOLECULE
ZINC000957079511
 47 49 1 0 0
SMALL
USER_CHARGES


@<TRIPOS>ATOM
      1 C1         -0.7455    1.0784   45.9730 C.3     1  ZINC000957079511   -0.0700
      2 C2         -0.9401    0.3164   47.2586 C.2     1  ZINC000957079511    0.0300
      3 C3         -1.5222    0.7878   48.3776 C.2     1  ZINC000957079511   -0.0200
      4 C4         -2.0973    2.1662   48.5787 C.3     1  ZINC000957079511   -0.0600
      5 C5         -2.9901    2.1657   49.7928 C.2     1  ZINC000957079511    0.5100
      6 O6         -2.5478    2.5011   50.8711 O.2     1  ZINC000957079511   -0.5200
      7 N7         -4.2803    1.7925   49.6802 N.am    1  ZINC000957079511   -0.7200
      8 C8         -5.1479    1.7904   50.8607 C.3     1  ZINC000957079511    0.1400
      9 H9         -4.5640    1.6597   51.7718 H       1  ZINC000957079511    0.1100
     10 C10        -6.2436    0.7016   50.7425 C.3     1  ZINC000957079511    0.0800
     11 N11        -7.3437    1.1787   51.6001 N.am    1  ZINC000957079511   -0.6200
     12 C12        -8.2853    0.4035   52.1736 C.2     1  ZINC000957079511    0.5400
     13 O13        -8.2719   -0.7966   51.9985 O.2     1  ZINC000957079511   -0.5100
     14 C14        -9.3549    1.0278   53.0322 C.3     1  ZINC000957079511    0.0500
     15 O15       -10.5514    0.2517   52.9421 O.3     1  ZINC000957079511   -0.2800
     16 C16       -11.5802    0.6036   53.7627 C.2     1  ZINC000957079511    0.1200
     17 C17       -12.7463   -0.0488   53.7752 C.2     1  ZINC000957079511   -0.3300
     18 S18       -13.8223    0.6882   54.9551 S.3     1  ZINC000957079511    0.1300
     19 C19       -12.5957    1.8751   55.3791 C.2     1  ZINC000957079511   -0.1800
     20 C20       -11.4961    1.6629   54.6535 C.2     1  ZINC000957079511   -0.1400
     21 C21        -7.2430    2.6400   51.7270 C.3     1  ZINC000957079511    0.1100
     22 C22        -6.0000    3.0853   50.9271 C.3     1  ZINC000957079511   -0.1100
     23 H23        -6.2823    3.4122   49.9262 H       1  ZINC000957079511    0.0900
     24 C24        -5.2502    4.1957   51.6658 C.3     1  ZINC000957079511   -0.1400
     25 N25        -1.4918   -0.2257   49.2971 N.pl3   1  ZINC000957079511   -0.5600
     26 C26        -0.8916   -1.2820   48.7074 C.2     1  ZINC000957079511    0.2000
     27 N27        -0.5688   -0.9522   47.4868 N.2     1  ZINC000957079511   -0.4900
     28 H28        -1.6139    0.9339   45.3301 H       1  ZINC000957079511    0.0700
     29 H29        -0.6293    2.1395   46.1936 H       1  ZINC000957079511    0.0600
     30 H30         0.1471    0.7128   45.4655 H       1  ZINC000957079511    0.0700
     31 H31        -1.2868    2.8805   48.7241 H       1  ZINC000957079511    0.1000
     32 H32        -2.6778    2.4494   47.7008 H       1  ZINC000957079511    0.1200
     33 H33        -4.6345    1.5254   48.8175 H       1  ZINC000957079511    0.4000
     34 H34        -6.5795    0.6122   49.7093 H       1  ZINC000957079511    0.0800
     35 H35        -5.8681   -0.2554   51.1044 H       1  ZINC000957079511    0.0800
     36 H36        -9.0180    1.0569   54.0684 H       1  ZINC000957079511    0.0900
     37 H37        -9.5529    2.0421   52.6858 H       1  ZINC000957079511    0.0900
     38 H38       -12.9910   -0.8985   53.1551 H       1  ZINC000957079511    0.1700
     39 H39       -12.7132    2.6545   56.1173 H       1  ZINC000957079511    0.1800
     40 H40       -10.6109    2.2744   54.7476 H       1  ZINC000957079511    0.1500
     41 H41        -8.1365    3.1101   51.3163 H       1  ZINC000957079511    0.0800
     42 H42        -7.1259    2.9138   52.7755 H       1  ZINC000957079511    0.0800
     43 H43        -4.9513    3.8388   52.6514 H       1  ZINC000957079511    0.0600
     44 H44        -4.3638    4.4762   51.0967 H       1  ZINC000957079511    0.0600
     45 H45        -5.9012    5.0630   51.7753 H       1  ZINC000957079511    0.0700
     46 H46        -1.8369   -0.1916   50.2030 H       1  ZINC000957079511    0.4200
     47 H47        -0.7122   -2.2421   49.1684 H       1  ZINC000957079511    0.2100
@<TRIPOS>BOND
     1     1     2    1
     2     1    28    1
     3     1    29    1
     4     1    30    1
     5     2    27    1
     6     2     3    2
     7     3     4    1
     8     3    25    1
     9     4     5    1
    10     4    31    1
    11     4    32    1
    12     5     6    2
    13     5     7   am
    14     7     8    1
    15     7    33    1
    16     8     9    1
    17     8    22    1
    18     8    10    1
    19    10    11    1
    20    10    34    1
    21    10    35    1
    22    11    12   am
    23    11    21    1
    24    12    13    2
    25    12    14    1
    26    14    15    1
    27    14    36    1
    28    14    37    1
    29    15    16    1
    30    16    20    1
    31    16    17    2
    32    17    18    1
    33    17    38    1
    34    18    19    1
    35    19    20    2
    36    19    39    1
    37    20    40    1
    38    21    22    1
    39    21    41    1
    40    21    42    1
    41    22    23    1
    42    22    24    1
    43    24    43    1
    44    24    44    1
    45    24    45    1
    46    25    26    1
    47    25    46    1
    48    26    27    2
    49    26    47    1
@<TRIPOS>SUBSTRUCTURE
     1 ZINC000957079511        1 TEMP              0 ****  ****    0 ROOT


##########                                Name:    ZINC000766421809
##########                DOCK_Rotatable_Bonds:                   7
##########                         Heavy_Atoms:                  26
##########                    Molecular_Weight:             358.372
##########                DOCK_Rotatable_Bonds:                   7
##########                       Formal_Charge:         4.61936e-07
##########                     HBond_Acceptors:                   8
##########                        HBond_Donors:                   0
##########                         Heavy_Atoms:                  26
##########                          Grid_Score:          -34.504066
##########                     Grid_vdw_energy:          -33.936321
##########                      Grid_es_energy:           -0.567744
##########           Internal_energy_repulsive:            3.205728

@<TRIPOS>MOLECULE
ZINC000766421809
 45 47 1 0 0
SMALL
USER_CHARGES


@<TRIPOS>ATOM
      1 C1        -14.2815    0.5838   51.2035 C.3     1  ZINC000766421809   -0.0700
      2 C2        -12.9553    0.3687   51.8864 C.2     1  ZINC000766421809    0.0700
      3 N3        -12.6993    0.5864   53.1508 N.2     1  ZINC000766421809   -0.2900
      4 N4        -11.3567    0.2641   53.3873 N.pl3   1  ZINC000766421809   -0.3700
      5 C5        -10.6601    0.3630   54.6723 C.3     1  ZINC000766421809    0.1000
      6 C6        -10.8184   -0.1535   52.2224 C.2     1  ZINC000766421809    0.0700
      7 C7         -9.3949   -0.6009   52.0113 C.3     1  ZINC000766421809    0.1400
      8 O8         -8.5332    0.5624   51.9013 O.3     1  ZINC000766421809   -0.3400
      9 C9         -7.2280    0.3356   51.6845 C.2     1  ZINC000766421809    0.4700
     10 O10        -6.8528   -0.7641   51.3533 O.2     1  ZINC000766421809   -0.5000
     11 C11        -6.2308    1.4527   51.8543 C.3     1  ZINC000766421809   -0.1100
     12 C12        -5.9327    2.0816   50.4918 C.3     1  ZINC000766421809   -0.0200
     13 C13        -4.4413    2.1683   50.2940 C.2     1  ZINC000766421809    0.1900
     14 N14        -3.7149    1.4089   49.5123 N.2     1  ZINC000766421809   -0.4700
     15 C15        -2.4443    1.8489   49.6569 C.2     1  ZINC000766421809    0.2200
     16 C16        -1.2420    1.3087   48.9754 C.ar    1  ZINC000766421809   -0.0300
     17 C17        -0.0304    1.2248   49.6584 C.ar    1  ZINC000766421809   -0.0500
     18 C18         1.0851    0.7215   49.0211 C.ar    1  ZINC000766421809   -0.1500
     19 C19         1.0017    0.3003   47.7039 C.ar    1  ZINC000766421809    0.1200
     20 F20         2.0964   -0.1916   47.0834 F       1  ZINC000766421809   -0.1300
     21 C21        -0.2015    0.3815   47.0211 C.ar    1  ZINC000766421809   -0.1200
     22 C22        -0.2864   -0.0791   45.5887 C.3     1  ZINC000766421809   -0.1200
     23 C23        -1.3229    0.8786   47.6522 C.ar    1  ZINC000766421809   -0.0600
     24 N24        -2.4739    2.8401   50.5096 N.2     1  ZINC000766421809   -0.3700
     25 O25        -3.6121    3.0384   50.8788 O.3     1  ZINC000766421809    0.0900
     26 C26       -11.7872   -0.1038   51.2791 C.2     1  ZINC000766421809   -0.2400
     27 H27       -14.8740   -0.3291   51.2648 H       1  ZINC000766421809    0.0800
     28 H28       -14.8155    1.3971   51.6948 H       1  ZINC000766421809    0.0700
     29 H29       -14.1142    0.8387   50.1570 H       1  ZINC000766421809    0.0800
     30 H30       -10.7586   -0.5786   55.2124 H       1  ZINC000766421809    0.0800
     31 H31        -9.6047    0.5734   54.4982 H       1  ZINC000766421809    0.0900
     32 H32       -11.0984    1.1679   55.2623 H       1  ZINC000766421809    0.0900
     33 H33        -9.0765   -1.2103   52.8570 H       1  ZINC000766421809    0.0900
     34 H34        -9.3308   -1.1886   51.0956 H       1  ZINC000766421809    0.0900
     35 H35        -6.6431    2.2097   52.5215 H       1  ZINC000766421809    0.1200
     36 H36        -5.3095    1.0556   52.2805 H       1  ZINC000766421809    0.1200
     37 H37        -6.3685    1.4666   49.7045 H       1  ZINC000766421809    0.1200
     38 H38        -6.3633    3.0821   50.4514 H       1  ZINC000766421809    0.1200
     39 H39         0.0356    1.5536   50.6851 H       1  ZINC000766421809    0.1500
     40 H40         2.0246    0.6561   49.5497 H       1  ZINC000766421809    0.1500
     41 H41        -0.5516   -1.1359   45.5620 H       1  ZINC000766421809    0.0800
     42 H42        -1.0474    0.4998   45.0653 H       1  ZINC000766421809    0.0800
     43 H43         0.6785    0.0658   45.1027 H       1  ZINC000766421809    0.0700
     44 H44        -2.2601    0.9416   47.1193 H       1  ZINC000766421809    0.1400
     45 H45       -11.6765   -0.3750   50.2396 H       1  ZINC000766421809    0.1500
@<TRIPOS>BOND
     1     1     2    1
     2     1    27    1
     3     1    28    1
     4     1    29    1
     5     2    26    1
     6     2     3    2
     7     3     4    1
     8     4     5    1
     9     4     6    1
    10     5    30    1
    11     5    31    1
    12     5    32    1
    13     6     7    1
    14     6    26    2
    15     7     8    1
    16     7    33    1
    17     7    34    1
    18     8     9    1
    19     9    10    2
    20     9    11    1
    21    11    12    1
    22    11    35    1
    23    11    36    1
    24    12    13    1
    25    12    37    1
    26    12    38    1
    27    13    25    1
    28    13    14    2
    29    14    15    1
    30    15    16    1
    31    15    24    2
    32    16    23   ar
    33    16    17   ar
    34    17    18   ar
    35    17    39    1
    36    18    19   ar
    37    18    40    1
    38    19    20    1
    39    19    21   ar
    40    21    22    1
    41    21    23   ar
    42    22    41    1
    43    22    42    1
    44    22    43    1
    45    23    44    1
    46    24    25    1
    47    26    45    1
@<TRIPOS>SUBSTRUCTURE
     1 ZINC000766421809        1 TEMP              0 ****  ****    0 ROOT


##########                                Name:    ZINC000563265674
##########                DOCK_Rotatable_Bonds:                   7
##########                         Heavy_Atoms:                  25
##########                    Molecular_Weight:             386.859
##########                DOCK_Rotatable_Bonds:                   7
##########                       Formal_Charge:          0.00999963
##########                     HBond_Acceptors:                  10
##########                        HBond_Donors:                   2
##########                         Heavy_Atoms:                  25
##########                          Grid_Score:          -34.464355
##########                     Grid_vdw_energy:          -34.732925
##########                      Grid_es_energy:            0.268571
##########           Internal_energy_repulsive:           14.771459

@<TRIPOS>MOLECULE
ZINC000563265674
 44 45 1 0 0
SMALL
USER_CHARGES


@<TRIPOS>ATOM
      1 C1        -10.1627   -0.6641   52.4839 C.3     1  ZINC000563265674   -0.0600
      2 C2         -8.8806    0.0840   52.2238 C.2     1  ZINC000563265674    0.1700
      3 N3         -7.8338   -0.3757   51.6062 N.2     1  ZINC000563265674   -0.3800
      4 O4         -6.9678    0.4724   51.5595 O.3     1  ZINC000563265674    0.0900
      5 C5         -7.3929    1.5874   52.1613 C.2     1  ZINC000563265674    0.1900
      6 C6         -6.6208    2.8719   52.3197 C.3     1  ZINC000563265674    0.2100
      7 C7         -7.3693    4.0066   51.6174 C.3     1  ZINC000563265674   -0.1400
      8 C8         -6.4763    3.2001   53.8070 C.3     1  ZINC000563265674   -0.1800
      9 N9         -5.2885    2.7195   51.7201 N.3     1  ZINC000563265674   -0.6600
     10 C10        -5.3501    2.8563   50.2587 C.3     1  ZINC000563265674    0.0400
     11 C11        -3.9869    2.5953   49.6719 C.2     1  ZINC000563265674    0.5200
     12 O12        -3.7568    2.8897   48.5179 O.2     1  ZINC000563265674   -0.4900
     13 N13        -3.0232    2.0346   50.4292 N.am    1  ZINC000563265674   -0.6700
     14 C14        -1.7569    1.7921   49.8840 C.ar    1  ZINC000563265674    0.1400
     15 C15        -1.4731    0.5635   49.3036 C.ar    1  ZINC000563265674   -0.0300
     16 C16        -0.2226    0.3273   48.7660 C.ar    1  ZINC000563265674   -0.6400
     17 S17         0.1379   -1.2320   48.0288 S.o2    1  ZINC000563265674    2.5000
     18 C18        -0.3630   -1.0398   46.2958 C.3     1  ZINC000563265674   -0.6500
     19 O19         1.5504   -1.3491   48.1295 O.2     1  ZINC000563265674   -0.9300
     20 O20        -0.7225   -2.1434   48.6982 O.2     1  ZINC000563265674   -0.9300
     21 C21         0.7464    1.3127   48.8054 C.ar    1  ZINC000563265674   -0.0300
     22 C22         0.4678    2.5380   49.3831 C.ar    1  ZINC000563265674   -0.1100
     23 C23        -0.7827    2.7829   49.9176 C.ar    1  ZINC000563265674   -0.0200
     24 Cl24       -1.1322    4.3213   50.6422 Cl      1  ZINC000563265674   -0.0500
     25 N25        -8.6118    1.3518   52.5834 N.2     1  ZINC000563265674   -0.4700
     26 H26       -10.8484   -0.5105   51.6505 H       1  ZINC000563265674    0.0900
     27 H27        -9.9484   -1.7278   52.5867 H       1  ZINC000563265674    0.0900
     28 H28       -10.6189   -0.2949   53.4025 H       1  ZINC000563265674    0.0900
     29 H29        -8.3580    4.1197   52.0622 H       1  ZINC000563265674    0.0800
     30 H30        -6.8109    4.9357   51.7319 H       1  ZINC000563265674    0.0800
     31 H31        -7.4723    3.7728   50.5578 H       1  ZINC000563265674    0.0700
     32 H32        -5.9431    2.3918   54.3073 H       1  ZINC000563265674    0.0700
     33 H33        -5.9180    4.1292   53.9215 H       1  ZINC000563265674    0.0800
     34 H34        -7.4650    3.3132   54.2519 H       1  ZINC000563265674    0.0800
     35 H35        -4.6355    3.3782   52.1176 H       1  ZINC000563265674    0.3600
     36 H36        -6.0628    2.1365   49.8562 H       1  ZINC000563265674    0.1200
     37 H37        -5.6691    3.8663   50.0014 H       1  ZINC000563265674    0.0800
     38 H38        -3.2071    1.7991   51.3520 H       1  ZINC000563265674    0.4200
     39 H39        -2.2291   -0.2071   49.2726 H       1  ZINC000563265674    0.1700
     40 H40         0.2093   -0.2320   45.8397 H       1  ZINC000563265674    0.1300
     41 H41        -0.1731   -1.9684   45.7576 H       1  ZINC000563265674    0.1400
     42 H42        -1.4260   -0.8034   46.2489 H       1  ZINC000563265674    0.1400
     43 H43         1.7230    1.1251   48.3844 H       1  ZINC000563265674    0.1500
     44 H44         1.2270    3.3056   49.4126 H       1  ZINC000563265674    0.1500
@<TRIPOS>BOND
     1     1     2    1
     2     1    26    1
     3     1    27    1
     4     1    28    1
     5     2    25    1
     6     2     3    2
     7     3     4    1
     8     4     5    1
     9     5     6    1
    10     5    25    2
    11     6     7    1
    12     6     8    1
    13     6     9    1
    14     7    29    1
    15     7    30    1
    16     7    31    1
    17     8    32    1
    18     8    33    1
    19     8    34    1
    20     9    10    1
    21     9    35    1
    22    10    11    1
    23    10    36    1
    24    10    37    1
    25    11    12    2
    26    11    13   am
    27    13    14    1
    28    13    38    1
    29    14    23   ar
    30    14    15   ar
    31    15    16   ar
    32    15    39    1
    33    16    17    1
    34    16    21   ar
    35    17    18    1
    36    17    19    2
    37    17    20    2
    38    18    40    1
    39    18    41    1
    40    18    42    1
    41    21    22   ar
    42    21    43    1
    43    22    23   ar
    44    22    44    1
    45    23    24    1
@<TRIPOS>SUBSTRUCTURE
     1 ZINC000563265674        1 TEMP              0 ****  ****    0 ROOT


##########                                Name:    ZINC000523863446
##########                DOCK_Rotatable_Bonds:                  10
##########                         Heavy_Atoms:                  29
##########                    Molecular_Weight:             396.533
##########                DOCK_Rotatable_Bonds:                  10
##########                       Formal_Charge:          -0.0200008
##########                     HBond_Acceptors:                   6
##########                        HBond_Donors:                   1
##########                         Heavy_Atoms:                  29
##########                          Grid_Score:          -34.441483
##########                     Grid_vdw_energy:          -34.164631
##########                      Grid_es_energy:           -0.276853
##########           Internal_energy_repulsive:           21.114460

@<TRIPOS>MOLECULE
ZINC000523863446
 61 63 1 0 0
SMALL
USER_CHARGES


@<TRIPOS>ATOM
      1 C1         -9.3866    3.3118   52.5405 C.3     1  ZINC000523863446   -0.1700
      2 C2         -8.0603    2.5492   52.5185 C.3     1  ZINC000523863446    0.1500
      3 H3         -8.2480    1.5005   52.2880 H       1  ZINC000523863446    0.1300
      4 C4         -7.1580    3.1411   51.4666 C.2     1  ZINC000523863446    0.5100
      5 O5         -7.1884    4.3326   51.2422 O.2     1  ZINC000523863446   -0.5100
      6 N6         -6.3174    2.3464   50.7752 N.am    1  ZINC000523863446   -0.6000
      7 C7         -6.2820    0.9069   51.0448 C.3     1  ZINC000523863446    0.0700
      8 C8         -5.4389    2.9221   49.7537 C.3     1  ZINC000523863446    0.1000
      9 C9         -4.0118    2.5321   50.0408 C.2     1  ZINC000523863446    0.5000
     10 O10        -3.5947    2.5531   51.1794 O.2     1  ZINC000523863446   -0.5200
     11 N11        -3.1990    2.1602   49.0321 N.am    1  ZINC000523863446   -0.7200
     12 C12        -1.8122    1.7794   49.3114 C.3     1  ZINC000523863446    0.1900
     13 H13        -1.7673    1.2380   50.2564 H       1  ZINC000523863446    0.1000
     14 C14        -0.9464    3.0375   49.4027 C.3     1  ZINC000523863446   -0.1200
     15 C15         0.3321    2.7214   50.1815 C.3     1  ZINC000523863446   -0.0900
     16 C16         1.5497    3.0042   49.2991 C.3     1  ZINC000523863446   -0.1200
     17 C17         2.8282    2.6882   50.0778 C.3     1  ZINC000523863446   -0.1200
     18 C18         2.8919    3.5638   51.3308 C.3     1  ZINC000523863446   -0.1200
     19 C19         1.6743    3.2811   52.2131 C.3     1  ZINC000523863446   -0.1200
     20 C20         0.3958    3.5972   51.4344 C.3     1  ZINC000523863446   -0.1100
     21 C21        -1.3005    0.8969   48.2021 C.ar    1  ZINC000523863446   -0.0900
     22 C22        -1.5663    1.2189   46.8843 C.ar    1  ZINC000523863446   -0.1100
     23 C23        -1.0969    0.4094   45.8668 C.ar    1  ZINC000523863446   -0.1200
     24 C24        -0.3614   -0.7219   46.1671 C.ar    1  ZINC000523863446   -0.1200
     25 C25        -0.0948   -1.0433   47.4849 C.ar    1  ZINC000523863446   -0.1200
     26 C26        -0.5605   -0.2315   48.5021 C.ar    1  ZINC000523863446   -0.1000
     27 N27        -7.4155    2.6530   53.8298 N.pl3   1  ZINC000523863446   -0.3600
     28 C28        -6.0905    2.5689   54.0718 C.2     1  ZINC000523863446    0.0600
     29 C29        -5.9046    2.7145   55.4043 C.2     1  ZINC000523863446   -0.2700
     30 C30        -7.1588    2.8936   55.9968 C.2     1  ZINC000523863446    0.0500
     31 N31        -8.0647    2.8631   55.0532 N.2     1  ZINC000523863446   -0.2900
     32 H32        -9.1990    4.3605   52.7711 H       1  ZINC000523863446    0.0700
     33 H33        -9.8664    3.2344   51.5649 H       1  ZINC000523863446    0.1000
     34 H34       -10.0393    2.8836   53.3013 H       1  ZINC000523863446    0.0800
     35 H35        -7.0003    0.3988   50.4013 H       1  ZINC000523863446    0.0700
     36 H36        -5.2810    0.5243   50.8450 H       1  ZINC000523863446    0.0800
     37 H37        -6.5382    0.7264   52.0887 H       1  ZINC000523863446    0.0800
     38 H38        -5.7279    2.5462   48.7722 H       1  ZINC000523863446    0.1100
     39 H39        -5.5286    4.0083   49.7678 H       1  ZINC000523863446    0.1100
     40 H40        -3.5323    2.1446   48.1213 H       1  ZINC000523863446    0.4000
     41 H41        -0.6867    3.3736   48.3988 H       1  ZINC000523863446    0.0800
     42 H42        -1.5001    3.8231   49.9169 H       1  ZINC000523863446    0.0700
     43 H43         0.3302    1.6710   50.4721 H       1  ZINC000523863446    0.0700
     44 H44         1.5043    2.3804   48.4066 H       1  ZINC000523863446    0.0600
     45 H45         1.5516    4.0548   49.0085 H       1  ZINC000523863446    0.0600
     46 H46         2.8263    1.6376   50.3685 H       1  ZINC000523863446    0.0600
     47 H47         3.6957    2.8896   49.4493 H       1  ZINC000523863446    0.0600
     48 H48         3.8028    3.3387   51.8855 H       1  ZINC000523863446    0.0600
     49 H49         2.8939    4.6144   51.0402 H       1  ZINC000523863446    0.0600
     50 H50         1.6724    2.2305   52.5037 H       1  ZINC000523863446    0.0600
     51 H51         1.7197    3.9050   53.1057 H       1  ZINC000523863446    0.0600
     52 H52         0.3978    4.6476   51.1438 H       1  ZINC000523863446    0.0600
     53 H53        -0.4716    3.3957   52.0630 H       1  ZINC000523863446    0.0600
     54 H54        -2.1409    2.1027   46.6497 H       1  ZINC000523863446    0.1200
     55 H55        -1.3052    0.6605   44.8373 H       1  ZINC000523863446    0.1200
     56 H56         0.0047   -1.3547   45.3721 H       1  ZINC000523863446    0.1200
     57 H57         0.4796   -1.9273   47.7194 H       1  ZINC000523863446    0.1200
     58 H58        -0.3523   -0.4827   49.5317 H       1  ZINC000523863446    0.1200
     59 H59        -5.3171    2.4129   53.3344 H       1  ZINC000523863446    0.1700
     60 H60        -4.9555    2.6950   55.9193 H       1  ZINC000523863446    0.1500
     61 H61        -7.3467    3.0375   57.0505 H       1  ZINC000523863446    0.1800
@<TRIPOS>BOND
     1     1     2    1
     2     1    32    1
     3     1    33    1
     4     1    34    1
     5     2     3    1
     6     2     4    1
     7     2    27    1
     8     4     5    2
     9     4     6   am
    10     6     7    1
    11     6     8    1
    12     7    35    1
    13     7    36    1
    14     7    37    1
    15     8     9    1
    16     8    38    1
    17     8    39    1
    18     9    10    2
    19     9    11   am
    20    11    12    1
    21    11    40    1
    22    12    13    1
    23    12    14    1
    24    12    21    1
    25    14    15    1
    26    14    41    1
    27    14    42    1
    28    15    20    1
    29    15    16    1
    30    15    43    1
    31    16    17    1
    32    16    44    1
    33    16    45    1
    34    17    18    1
    35    17    46    1
    36    17    47    1
    37    18    19    1
    38    18    48    1
    39    18    49    1
    40    19    20    1
    41    19    50    1
    42    19    51    1
    43    20    52    1
    44    20    53    1
    45    21    26   ar
    46    21    22   ar
    47    22    23   ar
    48    22    54    1
    49    23    24   ar
    50    23    55    1
    51    24    25   ar
    52    24    56    1
    53    25    26   ar
    54    25    57    1
    55    26    58    1
    56    27    31    1
    57    27    28    1
    58    28    29    2
    59    28    59    1
    60    29    30    1
    61    29    60    1
    62    30    31    2
    63    30    61    1
@<TRIPOS>SUBSTRUCTURE
     1 ZINC000523863446        1 TEMP              0 ****  ****    0 ROOT


##########                                Name:    ZINC000046390957
##########                DOCK_Rotatable_Bonds:                   9
##########                         Heavy_Atoms:                  29
##########                    Molecular_Weight:             408.521
##########                DOCK_Rotatable_Bonds:                   9
##########                       Formal_Charge:           0.0100005
##########                     HBond_Acceptors:                   6
##########                        HBond_Donors:                   1
##########                         Heavy_Atoms:                  29
##########                          Grid_Score:          -34.439110
##########                     Grid_vdw_energy:          -34.011742
##########                      Grid_es_energy:           -0.427370
##########           Internal_energy_repulsive:           13.459258

@<TRIPOS>MOLECULE
ZINC000046390957
 53 55 1 0 0
SMALL
USER_CHARGES


@<TRIPOS>ATOM
      1 C1         -6.5294   -0.0519   51.5443 C.3     1  ZINC000046390957   -0.1100
      2 C2         -7.2705    1.2601   51.5711 C.ar    1  ZINC000046390957   -0.0600
      3 C3         -8.4526    1.3720   52.2766 C.ar    1  ZINC000046390957   -0.1200
      4 C4         -9.1335    2.5752   52.3013 C.ar    1  ZINC000046390957   -0.1100
      5 C5         -8.6334    3.6702   51.6206 C.ar    1  ZINC000046390957   -0.1200
      6 C6         -7.4516    3.5649   50.9137 C.ar    1  ZINC000046390957   -0.0800
      7 C7         -6.9071    4.7588   50.1726 C.3     1  ZINC000046390957   -0.1100
      8 C8         -6.7627    2.3593   50.8912 C.ar    1  ZINC000046390957    0.1300
      9 N9         -5.5648    2.2495   50.1764 N.am    1  ZINC000046390957   -0.6800
     10 C10        -4.3894    2.4919   50.7896 C.2     1  ZINC000046390957    0.5200
     11 O11        -4.3699    2.8053   51.9612 O.2     1  ZINC000046390957   -0.4900
     12 C12        -3.0993    2.3736   50.0197 C.3     1  ZINC000046390957    0.0700
     13 H13        -3.2368    2.7766   49.0163 H       1  ZINC000046390957    0.1100
     14 C14        -2.0021    3.1605   50.7394 C.3     1  ZINC000046390957   -0.1700
     15 O15        -2.7145    0.9763   49.9317 O.3     1  ZINC000046390957   -0.3300
     16 C16        -2.0991    0.5836   48.8054 C.2     1  ZINC000046390957    0.4700
     17 O17        -2.1270    1.2885   47.8244 O.2     1  ZINC000046390957   -0.4800
     18 C18        -1.3734   -0.7366   48.7642 C.3     1  ZINC000046390957   -0.0300
     19 C19         0.1081   -0.4917   48.6376 C.2     1  ZINC000046390957    0.0800
     20 C20         0.8336   -0.9598   47.6175 C.2     1  ZINC000046390957   -0.2500
     21 S21         2.5022   -0.4481   47.8591 S.3     1  ZINC000046390957    0.1300
     22 C22         2.0584    0.3444   49.3077 C.2     1  ZINC000046390957    0.0600
     23 C23         3.0063    1.1004   50.2027 C.3     1  ZINC000046390957    0.0000
     24 C24         2.3467    2.3708   50.6739 C.ar    1  ZINC000046390957   -0.0900
     25 C25         2.3284    3.4848   49.8555 C.ar    1  ZINC000046390957   -0.0900
     26 C26         1.7235    4.6501   50.2878 C.ar    1  ZINC000046390957   -0.1200
     27 C27         1.1363    4.7014   51.5382 C.ar    1  ZINC000046390957   -0.1200
     28 C28         1.1538    3.5872   52.3562 C.ar    1  ZINC000046390957   -0.1200
     29 C29         1.7550    2.4205   51.9223 C.ar    1  ZINC000046390957   -0.1100
     30 N30         0.7933    0.2063   49.5206 N.2     1  ZINC000046390957   -0.4500
     31 H31        -5.9109   -0.1381   52.4377 H       1  ZINC000046390957    0.0800
     32 H32        -7.2455   -0.8732   51.5175 H       1  ZINC000046390957    0.0700
     33 H33        -5.8958   -0.0932   50.6583 H       1  ZINC000046390957    0.0600
     34 H34        -8.8457    0.5186   52.8092 H       1  ZINC000046390957    0.1300
     35 H35       -10.0580    2.6600   52.8531 H       1  ZINC000046390957    0.1300
     36 H36        -9.1677    4.6085   51.6416 H       1  ZINC000046390957    0.1300
     37 H37        -6.2499    5.3266   50.8313 H       1  ZINC000046390957    0.0700
     38 H38        -6.3450    4.4206   49.3021 H       1  ZINC000046390957    0.0600
     39 H39        -7.7325    5.3926   49.8484 H       1  ZINC000046390957    0.0700
     40 H40        -5.5804    1.9989   49.2395 H       1  ZINC000046390957    0.4100
     41 H41        -2.2910    4.2095   50.8054 H       1  ZINC000046390957    0.0800
     42 H42        -1.8645    2.7576   51.7428 H       1  ZINC000046390957    0.0800
     43 H43        -1.0689    3.0751   50.1825 H       1  ZINC000046390957    0.0800
     44 H44        -1.5733   -1.2898   49.6819 H       1  ZINC000046390957    0.1200
     45 H45        -1.7205   -1.3153   47.9082 H       1  ZINC000046390957    0.1300
     46 H46         0.4627   -1.5479   46.7912 H       1  ZINC000046390957    0.1800
     47 H47         3.2631    0.4833   51.0638 H       1  ZINC000046390957    0.1000
     48 H48         3.9122    1.3453   49.6483 H       1  ZINC000046390957    0.1000
     49 H49         2.7871    3.4446   48.8786 H       1  ZINC000046390957    0.1200
     50 H50         1.7098    5.5206   49.6487 H       1  ZINC000046390957    0.1200
     51 H51         0.6643    5.6121   51.8761 H       1  ZINC000046390957    0.1200
     52 H52         0.6954    3.6273   53.3332 H       1  ZINC000046390957    0.1200
     53 H53         1.7687    1.5500   52.5614 H       1  ZINC000046390957    0.1200
@<TRIPOS>BOND
     1     1     2    1
     2     1    31    1
     3     1    32    1
     4     1    33    1
     5     2     8   ar
     6     2     3   ar
     7     3     4   ar
     8     3    34    1
     9     4     5   ar
    10     4    35    1
    11     5     6   ar
    12     5    36    1
    13     6     7    1
    14     6     8   ar
    15     7    37    1
    16     7    38    1
    17     7    39    1
    18     8     9    1
    19     9    10   am
    20     9    40    1
    21    10    11    2
    22    10    12    1
    23    12    13    1
    24    12    14    1
    25    12    15    1
    26    14    41    1
    27    14    42    1
    28    14    43    1
    29    15    16    1
    30    16    17    2
    31    16    18    1
    32    18    19    1
    33    18    44    1
    34    18    45    1
    35    19    30    1
    36    19    20    2
    37    20    21    1
    38    20    46    1
    39    21    22    1
    40    22    23    1
    41    22    30    2
    42    23    24    1
    43    23    47    1
    44    23    48    1
    45    24    29   ar
    46    24    25   ar
    47    25    26   ar
    48    25    49    1
    49    26    27   ar
    50    26    50    1
    51    27    28   ar
    52    27    51    1
    53    28    29   ar
    54    28    52    1
    55    29    53    1
@<TRIPOS>SUBSTRUCTURE
     1 ZINC000046390957        1 TEMP              0 ****  ****    0 ROOT


##########                                Name:    ZINC000193795672
##########                DOCK_Rotatable_Bonds:                  10
##########                         Heavy_Atoms:                  23
##########                    Molecular_Weight:              332.47
##########                DOCK_Rotatable_Bonds:                  10
##########                       Formal_Charge:        -2.98023e-07
##########                     HBond_Acceptors:                   6
##########                        HBond_Donors:                   3
##########                         Heavy_Atoms:                  23
##########                          Grid_Score:          -34.433037
##########                     Grid_vdw_energy:          -34.132256
##########                      Grid_es_energy:           -0.300781
##########           Internal_energy_repulsive:           11.167253

@<TRIPOS>MOLECULE
ZINC000193795672
 47 48 1 0 0
SMALL
USER_CHARGES


@<TRIPOS>ATOM
      1 C1         -0.1240    0.5499   45.4113 C.3     1  <0>        -0.1000
      2 C2         -0.9177    0.7272   46.6801 C.ar    1  <0>        -0.2000
      3 C3         -1.0030   -0.3056   47.6039 C.ar    1  <0>        -0.0300
      4 C4         -1.7414   -0.1016   48.7559 C.ar    1  <0>        -0.2400
      5 C5         -2.3696    1.1243   48.9485 C.ar    1  <0>         0.4000
      6 N6         -3.1147    1.3428   50.1015 N.pl3   1  <0>        -0.7300
      7 C7         -4.2297    2.2929   50.0841 C.3     1  <0>         0.1300
      8 C8         -5.1091    2.0698   51.3161 C.3     1  <0>        -0.1400
      9 C9         -6.1908    1.0379   50.9904 C.3     1  <0>         0.1400
     10 N10        -7.3424    1.2425   51.8726 N.am    1  <0>        -0.7500
     11 C11        -8.2057    0.2326   52.0990 C.2     1  <0>         0.7100
     12 O12        -8.0279   -0.8488   51.5723 O.2     1  <0>        -0.5900
     13 N13        -9.2659    0.4213   52.9094 N.am    1  <0>        -0.7400
     14 C14       -10.2053   -0.6759   53.1541 C.3     1  <0>         0.1700
     15 H15        -9.6520   -1.6064   53.2813 H       1  <0>         0.0900
     16 C16       -11.0111   -0.3844   54.4216 C.3     1  <0>        -0.1700
     17 C17       -11.1573   -0.8073   51.9635 C.3     1  <0>        -0.0600
     18 C18       -12.1463    0.3296   51.9834 C.2     1  <0>        -0.1700
     19 C19       -13.3533    0.2890   52.5497 C.2     1  <0>        -0.1400
     20 C20       -14.0877    1.4574   52.4420 C.2     1  <0>        -0.1300
     21 C21       -13.4770    2.4469   51.7883 C.2     1  <0>        -0.2100
     22 S22       -11.8824    1.9155   51.2701 S.3     1  <0>         0.0900
     23 N23        -2.2640    2.0852   48.0435 N.ar    1  <0>        -0.5400
     24 C24        -1.5627    1.9204   46.9380 C.ar    1  <0>         0.1500
     25 H25         0.9074    0.8582   45.5818 H       1  <0>         0.0700
     26 H26        -0.1453   -0.4983   45.1129 H       1  <0>         0.0600
     27 H27        -0.5602    1.1615   44.6214 H       1  <0>         0.0700
     28 H28        -0.5046   -1.2473   47.4271 H       1  <0>         0.1300
     29 H29        -1.8290   -0.8838   49.4956 H       1  <0>         0.1300
     30 H30        -2.8963    0.8662   50.9177 H       1  <0>         0.4000
     31 H31        -3.8399    3.3108   50.0955 H       1  <0>         0.0700
     32 H32        -4.8226    2.1409   49.1822 H       1  <0>         0.0700
     33 H33        -4.4951    1.7049   52.1395 H       1  <0>         0.0800
     34 H34        -5.5790    3.0107   51.6024 H       1  <0>         0.0800
     35 H35        -6.5031    1.1541   49.9526 H       1  <0>         0.0700
     36 H36        -5.7925    0.0344   51.1398 H       1  <0>         0.0700
     37 H37        -7.4835    2.1048   52.2939 H       1  <0>         0.4000
     38 H38        -9.4071    1.2837   53.3305 H       1  <0>         0.3900
     39 H39       -11.5644    0.5461   54.2945 H       1  <0>         0.0600
     40 H40       -11.7100   -1.2008   54.6037 H       1  <0>         0.0700
     41 H41       -10.3328   -0.2908   55.2698 H       1  <0>         0.0700
     42 H42       -10.5857   -0.7756   51.0360 H       1  <0>         0.1000
     43 H43       -11.6919   -1.7550   52.0287 H       1  <0>         0.0800
     44 H44       -13.7292   -0.5890   53.0537 H       1  <0>         0.1400
     45 H45       -15.0801    1.5601   52.8556 H       1  <0>         0.1400
     46 H46       -13.8961    3.4258   51.6081 H       1  <0>         0.1600
     47 H47        -1.4988    2.7265   46.2222 H       1  <0>         0.1500
@<TRIPOS>BOND
     1     1     2    1
     2     1    25    1
     3     1    26    1
     4     1    27    1
     5     2    24   ar
     6     2     3   ar
     7     3     4   ar
     8     3    28    1
     9     4     5   ar
    10     4    29    1
    11     5     6    1
    12     5    23   ar
    13     6     7    1
    14     6    30    1
    15     7     8    1
    16     7    31    1
    17     7    32    1
    18     8     9    1
    19     8    33    1
    20     8    34    1
    21     9    10    1
    22     9    35    1
    23     9    36    1
    24    10    11   am
    25    10    37    1
    26    11    12    2
    27    11    13   am
    28    13    14    1
    29    13    38    1
    30    14    15    1
    31    14    16    1
    32    14    17    1
    33    16    39    1
    34    16    40    1
    35    16    41    1
    36    17    18    1
    37    17    42    1
    38    17    43    1
    39    18    22    1
    40    18    19    2
    41    19    20    1
    42    19    44    1
    43    20    21    2
    44    20    45    1
    45    21    22    1
    46    21    46    1
    47    23    24   ar
    48    24    47    1
@<TRIPOS>SUBSTRUCTURE
     1 <0>         1 TEMP              0 ****  ****    0 ROOT


##########                                Name:    ZINC000740843182
##########                DOCK_Rotatable_Bonds:                  10
##########                         Heavy_Atoms:                  24
##########                    Molecular_Weight:              419.34
##########                DOCK_Rotatable_Bonds:                  10
##########                       Formal_Charge:          0.00999957
##########                     HBond_Acceptors:                   7
##########                        HBond_Donors:                   3
##########                         Heavy_Atoms:                  24
##########                          Grid_Score:          -34.387383
##########                     Grid_vdw_energy:          -34.370159
##########                      Grid_es_energy:           -0.017223
##########           Internal_energy_repulsive:            9.189006

@<TRIPOS>MOLECULE
ZINC000740843182
 47 48 1 0 0
SMALL
USER_CHARGES


@<TRIPOS>ATOM
      1 C1         -7.5960    0.9240   51.8204 C.3     1  ZINC000740843182   -0.1500
      2 C2         -6.3126    1.6913   52.1449 C.3     1  ZINC000740843182   -0.1000
      3 H3         -5.6209    1.0354   52.6735 H       1  ZINC000740843182    0.0900
      4 C4         -5.6652    2.1745   50.8456 C.3     1  ZINC000740843182    0.1200
      5 N5         -4.2469    1.8080   50.8409 N.am    1  ZINC000740843182   -0.7200
      6 C6         -3.4619    2.1649   49.8050 C.2     1  ZINC000740843182    0.5500
      7 O7         -3.9313    2.7898   48.8739 O.2     1  ZINC000740843182   -0.5000
      8 C8         -2.0307    1.7966   49.8012 C.ar    1  ZINC000740843182   -0.1300
      9 C9         -1.5969    0.6764   49.0904 C.ar    1  ZINC000740843182    0.0200
     10 C10        -0.2595    0.3384   49.0905 C.ar    1  ZINC000740843182   -0.6800
     11 S11         0.2896   -1.0753   48.1936 S.o2    1  ZINC000740843182    2.7000
     12 O12         1.7093   -1.0168   48.1821 O.2     1  ZINC000740843182   -0.9400
     13 O13        -0.4384   -2.1830   48.7056 O.2     1  ZINC000740843182   -0.9500
     14 N14        -0.1991   -0.8800   46.6234 N.am    1  ZINC000740843182   -1.0900
     15 C15         0.2639    0.2751   45.8504 C.3     1  ZINC000740843182    0.0800
     16 C16         0.5699    0.0561   44.3675 C.3     1  ZINC000740843182   -0.1800
     17 C17        -0.6792    0.8354   44.7839 C.3     1  ZINC000740843182   -0.1900
     18 C18         0.6520    1.1069   49.7928 C.ar    1  ZINC000740843182    0.0100
     19 C19         0.2300    2.2184   50.4996 C.ar    1  ZINC000740843182   -0.1200
     20 C20        -1.1048    2.5713   50.5043 C.ar    1  ZINC000740843182    0.0100
     21 Br21       -1.6804    4.0911   51.4712 Br      1  ZINC000740843182    0.0100
     22 C22        -6.6478    2.8960   53.0265 C.3     1  ZINC000740843182   -0.1400
     23 C23        -5.3521    3.5476   53.5138 C.3     1  ZINC000740843182    0.1000
     24 H24        -4.5178    2.8660   53.3478 H       1  ZINC000740843182    0.1000
     25 C25        -5.4676    3.8580   55.0075 C.3     1  ZINC000740843182   -0.1900
     26 O26        -5.1276    4.7599   52.7913 O.3     1  ZINC000740843182   -0.5600
     27 H27        -8.0573    0.5796   52.7460 H       1  ZINC000740843182    0.0600
     28 H28        -8.2876    1.5798   51.2918 H       1  ZINC000740843182    0.0600
     29 H29        -7.3572    0.0657   51.1923 H       1  ZINC000740843182    0.0500
     30 H30        -6.1638    1.7083   49.9958 H       1  ZINC000740843182    0.0700
     31 H31        -5.7606    3.2580   50.7732 H       1  ZINC000740843182    0.0700
     32 H32        -3.8726    1.3083   51.5833 H       1  ZINC000740843182    0.4000
     33 H33        -2.3069    0.0755   48.5416 H       1  ZINC000740843182    0.1500
     34 H34        -0.7919   -1.5304   46.2156 H       1  ZINC000740843182    0.4200
     35 H35         0.8875    0.9850   46.3939 H       1  ZINC000740843182    0.1400
     36 H36         1.3952    0.6218   43.9350 H       1  ZINC000740843182    0.1100
     37 H37         0.4267   -0.9475   43.9669 H       1  ZINC000740843182    0.1000
     38 H38        -1.6441    0.3445   44.6573 H       1  ZINC000740843182    0.1000
     39 H39        -0.6757    1.9138   44.6253 H       1  ZINC000740843182    0.1100
     40 H40         1.6978    0.8373   49.7891 H       1  ZINC000740843182    0.1600
     41 H41         0.9467    2.8139   51.0457 H       1  ZINC000740843182    0.1500
     42 H42        -7.2236    3.6195   52.4494 H       1  ZINC000740843182    0.0700
     43 H43        -7.2337    2.5665   53.8845 H       1  ZINC000740843182    0.0800
     44 H44        -5.6388    2.9332   55.5585 H       1  ZINC000740843182    0.0700
     45 H45        -4.5446    4.3222   55.3546 H       1  ZINC000740843182    0.0600
     46 H46        -6.3019    4.5395   55.1735 H       1  ZINC000740843182    0.0600
     47 H47        -5.8415    5.4067   52.8769 H       1  ZINC000740843182    0.3700
@<TRIPOS>BOND
     1     1     2    1
     2     1    27    1
     3     1    28    1
     4     1    29    1
     5     2     3    1
     6     2     4    1
     7     2    22    1
     8     4     5    1
     9     4    30    1
    10     4    31    1
    11     5     6   am
    12     5    32    1
    13     6     7    2
    14     6     8    1
    15     8    20   ar
    16     8     9   ar
    17     9    10   ar
    18     9    33    1
    19    10    11    1
    20    10    18   ar
    21    11    12    2
    22    11    13    2
    23    11    14   am
    24    14    15    1
    25    14    34    1
    26    15    17    1
    27    15    16    1
    28    15    35    1
    29    16    17    1
    30    16    36    1
    31    16    37    1
    32    17    38    1
    33    17    39    1
    34    18    19   ar
    35    18    40    1
    36    19    20   ar
    37    19    41    1
    38    20    21    1
    39    22    23    1
    40    22    42    1
    41    22    43    1
    42    23    24    1
    43    23    25    1
    44    23    26    1
    45    25    44    1
    46    25    45    1
    47    25    46    1
    48    26    47    1
@<TRIPOS>SUBSTRUCTURE
     1 ZINC000740843182        1 TEMP              0 ****  ****    0 ROOT


##########                                Name:    ZINC000328606936
##########                DOCK_Rotatable_Bonds:                   6
##########                         Heavy_Atoms:                  23
##########                    Molecular_Weight:             338.428
##########                DOCK_Rotatable_Bonds:                   6
##########                       Formal_Charge:           0.0100001
##########                     HBond_Acceptors:                   7
##########                        HBond_Donors:                   2
##########                         Heavy_Atoms:                  23
##########                          Grid_Score:          -34.369061
##########                     Grid_vdw_energy:          -31.792162
##########                      Grid_es_energy:           -2.576900
##########           Internal_energy_repulsive:           12.942036

@<TRIPOS>MOLECULE
ZINC000328606936
 45 47 1 0 0
SMALL
USER_CHARGES


@<TRIPOS>ATOM
      1 C1         -5.6213    1.7160   53.0642 C.3     1  <0>        -0.0500
      2 N2         -6.1518    2.0414   51.7336 N.4     1  <0>        -0.3500
      3 H3         -7.0332    2.5226   51.8312 H       1  <0>         0.4200
      4 C4         -6.3523    0.8026   50.9700 C.3     1  <0>        -0.0900
      5 C5         -7.3497   -0.0722   51.6848 C.2     1  <0>         0.4900
      6 O6         -8.2193    0.4326   52.3744 O.co2   1  <0>        -0.6700
      7 O7         -7.2872   -1.2847   51.5734 O.co2   1  <0>        -0.6400
      8 C8         -5.1984    2.9050   51.0241 C.3     1  <0>         0.0100
      9 H9         -5.6021    3.1976   50.0548 H       1  <0>         0.1600
     10 C10        -3.8472    2.1799   50.8460 C.3     1  <0>         0.1000
     11 N11        -2.8277    3.2402   51.0223 N.am    1  <0>        -0.6200
     12 C12        -1.6828    3.4094   50.3318 C.2     1  <0>         0.6200
     13 O13        -0.9430    4.3384   50.5983 O.2     1  <0>        -0.5100
     14 C14        -1.3284    2.4747   49.2597 C.2     1  <0>        -0.2800
     15 C15        -1.1546    2.8040   47.9505 C.2     1  <0>        -0.0300
     16 C16        -0.8227    1.7349   47.1386 C.2     1  <0>        -0.1200
     17 C17        -0.7311    0.5559   47.7946 C.2     1  <0>        -0.1900
     18 C18        -0.3811   -0.7650   47.1354 C.3     1  <0>        -0.0500
     19 C19        -0.5637   -0.6235   45.6221 C.3     1  <0>        -0.1200
     20 C20         0.1696    0.6343   45.1471 C.3     1  <0>        -0.1200
     21 C21        -0.5823    1.8718   45.6407 C.3     1  <0>        -0.0600
     22 S22        -1.0527    0.7521   49.4601 S.3     1  <0>         0.2000
     23 C23        -3.3524    4.0725   52.1299 C.3     1  <0>         0.0600
     24 C24        -4.8745    4.1543   51.8694 C.3     1  <0>         0.0800
     25 H25        -5.4221    4.1265   52.8115 H       1  <0>         0.1000
     26 O26        -5.1914    5.3454   51.1464 O.3     1  <0>        -0.5400
     27 H27        -4.6692    1.1962   52.9587 H       1  <0>         0.1100
     28 H28        -5.4726    2.6353   53.6307 H       1  <0>         0.1100
     29 H29        -6.3287    1.0752   53.5906 H       1  <0>         0.1600
     30 H30        -6.7284    1.0451   49.9761 H       1  <0>         0.1200
     31 H31        -5.4036    0.2733   50.8804 H       1  <0>         0.1300
     32 H32        -3.7273    1.4073   51.6055 H       1  <0>         0.1000
     33 H33        -3.7766    1.7471   49.8481 H       1  <0>         0.1200
     34 H34        -1.2666    3.8117   47.5783 H       1  <0>         0.1500
     35 H35         0.6552   -1.0205   47.3563 H       1  <0>         0.0900
     36 H36        -1.0407   -1.5472   47.5116 H       1  <0>         0.0800
     37 H37        -0.1491   -1.4984   45.1213 H       1  <0>         0.0700
     38 H38        -1.6249   -0.5369   45.3892 H       1  <0>         0.0700
     39 H39         1.1828    0.6388   45.5491 H       1  <0>         0.0700
     40 H40         0.2093    0.6430   44.0579 H       1  <0>         0.0700
     41 H41        -1.5379    1.9497   45.1221 H       1  <0>         0.0800
     42 H42         0.0144    2.7632   45.4471 H       1  <0>         0.0800
     43 H43        -3.1554    3.5956   53.0900 H       1  <0>         0.1000
     44 H44        -2.9087    5.0677   52.1008 H       1  <0>         0.1000
     45 H45        -6.1092    5.3901   50.8450 H       1  <0>         0.4000
@<TRIPOS>BOND
     1     1     2    1
     2     1    27    1
     3     1    28    1
     4     1    29    1
     5     2     3    1
     6     2     4    1
     7     2     8    1
     8     4     5    1
     9     4    30    1
    10     4    31    1
    11     5     6   ar
    12     5     7   ar
    13     8     9    1
    14     8    24    1
    15     8    10    1
    16    10    11    1
    17    10    32    1
    18    10    33    1
    19    11    12   am
    20    11    23    1
    21    12    13    2
    22    12    14    1
    23    14    22    1
    24    14    15    2
    25    15    16    1
    26    15    34    1
    27    16    21    1
    28    16    17    2
    29    17    18    1
    30    17    22    1
    31    18    19    1
    32    18    35    1
    33    18    36    1
    34    19    20    1
    35    19    37    1
    36    19    38    1
    37    20    21    1
    38    20    39    1
    39    20    40    1
    40    21    41    1
    41    21    42    1
    42    23    24    1
    43    23    43    1
    44    23    44    1
    45    24    25    1
    46    24    26    1
    47    26    45    1
@<TRIPOS>SUBSTRUCTURE
     1 <0>         1 TEMP              0 ****  ****    0 ROOT


##########                                Name:    ZINC000599797189
##########                DOCK_Rotatable_Bonds:                  13
##########                         Heavy_Atoms:                  23
##########                    Molecular_Weight:             329.313
##########                DOCK_Rotatable_Bonds:                  13
##########                       Formal_Charge:          0.00999949
##########                     HBond_Acceptors:                  11
##########                        HBond_Donors:                   3
##########                         Heavy_Atoms:                  23
##########                          Grid_Score:          -34.299568
##########                     Grid_vdw_energy:          -32.960159
##########                      Grid_es_energy:           -1.339409
##########           Internal_energy_repulsive:            8.966411

@<TRIPOS>MOLECULE
ZINC000599797189
 42 42 1 0 0
SMALL
USER_CHARGES


@<TRIPOS>ATOM
      1 C1          2.6471   -0.4691   47.5427 C.3     1  ZINC000599797189   -0.1500
      2 C2          2.7153    0.4296   46.3063 C.3     1  ZINC000599797189    0.0600
      3 O3          1.4496    1.1215   46.1404 O.3     1  ZINC000599797189   -0.3600
      4 C4          0.4759    0.4636   45.4920 C.2     1  ZINC000599797189    0.4500
      5 O5          0.5205    0.3496   44.2900 O.2     1  ZINC000599797189   -0.4800
      6 C6         -0.6733   -0.1329   46.2632 C.3     1  ZINC000599797189    0.1500
      7 N7         -1.2287    0.8753   47.1695 N.pl3   1  ZINC000599797189   -0.3800
      8 C8         -1.3053    2.1988   46.9503 C.2     1  ZINC000599797189    0.2800
      9 N9         -1.8647    2.7543   47.9949 N.2     1  ZINC000599797189   -0.5100
     10 C10        -2.1592    1.8180   48.9017 C.2     1  ZINC000599797189    0.4700
     11 N11        -2.7651    2.0471   50.1415 N.am    1  ZINC000599797189   -0.6400
     12 C12        -4.0984    2.2297   50.2166 C.2     1  ZINC000599797189    0.7100
     13 O13        -4.7743    2.1969   49.2065 O.2     1  ZINC000599797189   -0.5300
     14 N14        -4.6822    2.4488   51.4114 N.am    1  ZINC000599797189   -0.7300
     15 C15        -6.1316    2.6456   51.4932 C.3     1  ZINC000599797189    0.1100
     16 C16        -6.8194    1.2936   51.6929 C.3     1  ZINC000599797189    0.1100
     17 H17        -7.1476    0.9069   50.7282 H       1  ZINC000599797189    0.1200
     18 O18        -5.9002    0.3747   52.2868 O.3     1  ZINC000599797189   -0.5400
     19 C19        -8.0308    1.4683   52.6111 C.3     1  ZINC000599797189   -0.1500
     20 C20        -8.9375    0.2718   52.4797 C.2     1  ZINC000599797189    0.4600
     21 O21        -8.5086   -0.7648   52.0307 O.2     1  ZINC000599797189   -0.4900
     22 O22       -10.2214    0.3576   52.8613 O.3     1  ZINC000599797189   -0.3600
     23 C23       -11.0230   -0.8484   52.7541 C.3     1  ZINC000599797189    0.0400
     24 N24        -1.7915    0.6483   48.4360 N.2     1  ZINC000599797189   -0.3200
     25 H25         3.5972   -0.9885   47.6672 H       1  ZINC000599797189    0.0800
     26 H26         2.4478    0.1403   48.4241 H       1  ZINC000599797189    0.0700
     27 H27         1.8475   -1.1992   47.4175 H       1  ZINC000599797189    0.0700
     28 H28         3.5149    1.1597   46.4315 H       1  ZINC000599797189    0.0700
     29 H29         2.9145   -0.1799   45.4248 H       1  ZINC000599797189    0.0700
     30 H30        -1.4458   -0.4614   45.5679 H       1  ZINC000599797189    0.1500
     31 H31        -0.3188   -0.9857   46.8419 H       1  ZINC000599797189    0.1300
     32 H32        -0.9640    2.7149   46.0653 H       1  ZINC000599797189    0.2300
     33 H33        -2.2257    2.0744   50.9473 H       1  ZINC000599797189    0.4200
     34 H34        -4.1428    2.4761   52.2171 H       1  ZINC000599797189    0.4000
     35 H35        -6.3627    3.2987   52.3348 H       1  ZINC000599797189    0.0800
     36 H36        -6.4890    3.1023   50.5703 H       1  ZINC000599797189    0.0800
     37 H37        -5.5981    0.6347   53.1679 H       1  ZINC000599797189    0.3800
     38 H38        -7.6940    1.5572   53.6440 H       1  ZINC000599797189    0.1200
     39 H39        -8.5748    2.3693   52.3274 H       1  ZINC000599797189    0.1200
     40 H40       -11.0476   -1.1772   51.7152 H       1  ZINC000599797189    0.0600
     41 H41       -10.5853   -1.6318   53.3729 H       1  ZINC000599797189    0.0600
     42 H42       -12.0378   -0.6415   53.0939 H       1  ZINC000599797189    0.1000
@<TRIPOS>BOND
     1     1     2    1
     2     1    25    1
     3     1    26    1
     4     1    27    1
     5     2     3    1
     6     2    28    1
     7     2    29    1
     8     3     4    1
     9     4     5    2
    10     4     6    1
    11     6     7    1
    12     6    30    1
    13     6    31    1
    14     7    24    1
    15     7     8    1
    16     8     9    2
    17     8    32    1
    18     9    10    1
    19    10    11    1
    20    10    24    2
    21    11    12   am
    22    11    33    1
    23    12    13    2
    24    12    14   am
    25    14    15    1
    26    14    34    1
    27    15    16    1
    28    15    35    1
    29    15    36    1
    30    16    17    1
    31    16    18    1
    32    16    19    1
    33    18    37    1
    34    19    20    1
    35    19    38    1
    36    19    39    1
    37    20    21    2
    38    20    22    1
    39    22    23    1
    40    23    40    1
    41    23    41    1
    42    23    42    1
@<TRIPOS>SUBSTRUCTURE
     1 ZINC000599797189        1 TEMP              0 ****  ****    0 ROOT


##########                                Name:    ZINC000609484313
##########                DOCK_Rotatable_Bonds:                  10
##########                         Heavy_Atoms:                  26
##########                    Molecular_Weight:             361.487
##########                DOCK_Rotatable_Bonds:                  10
##########                       Formal_Charge:          -0.0200004
##########                     HBond_Acceptors:                   7
##########                        HBond_Donors:                   1
##########                         Heavy_Atoms:                  26
##########                          Grid_Score:          -34.274326
##########                     Grid_vdw_energy:          -33.707932
##########                      Grid_es_energy:           -0.566395
##########           Internal_energy_repulsive:           24.911236

@<TRIPOS>MOLECULE
ZINC000609484313
 57 58 1 0 0
SMALL
USER_CHARGES


@<TRIPOS>ATOM
      1 C1         -7.0970    4.2379   54.0536 C.3     1  ZINC000609484313   -0.1500
      2 C2         -6.3030    4.7040   52.8317 C.3     1  ZINC000609484313   -0.1300
      3 C3         -4.8171    4.4094   53.0464 C.3     1  ZINC000609484313   -0.1100
      4 C4         -4.1098    4.3409   51.6914 C.3     1  ZINC000609484313   -0.1100
      5 C5         -3.8052    2.8813   51.3483 C.3     1  ZINC000609484313    0.0800
      6 H6         -3.2171    2.4347   52.1500 H       1  ZINC000609484313    0.1200
      7 C7         -5.0972    2.1221   51.1902 C.2     1  ZINC000609484313    0.4900
      8 O8         -5.8629    2.4079   50.2941 O.2     1  ZINC000609484313   -0.5000
      9 N9         -5.4021    1.1254   52.0447 N.am    1  ZINC000609484313   -0.6300
     10 C10        -6.5974    0.4215   51.8973 C.2     1  ZINC000609484313    0.2400
     11 N11        -6.7434   -0.7851   51.4160 N.2     1  ZINC000609484313   -0.3900
     12 O12        -7.9041   -1.1241   51.4153 O.3     1  ZINC000609484313    0.1000
     13 C13        -8.7019   -0.1653   51.9075 C.2     1  ZINC000609484313   -0.0200
     14 C14       -10.1996   -0.2309   52.0608 C.3     1  ZINC000609484313   -0.0800
     15 C15        -7.8994    0.8695   52.2457 C.2     1  ZINC000609484313   -0.2300
     16 N16        -3.0455    2.8218   50.0923 N.3     1  ZINC000609484313   -0.5000
     17 C17        -3.0990    1.4747   49.5077 C.3     1  ZINC000609484313    0.0400
     18 C18        -2.3649    1.4746   48.1648 C.3     1  ZINC000609484313    0.0500
     19 N19        -0.9738    1.9017   48.3701 N.3     1  ZINC000609484313   -0.5100
     20 C20        -0.2141    1.8422   47.1141 C.3     1  ZINC000609484313    0.1800
     21 H21        -0.7333    1.1968   46.4056 H       1  ZINC000609484313    0.1200
     22 C22        -0.0947    3.1959   46.5483 C.1     1  ZINC000609484313    0.1700
     23 N23        -0.0025    4.2406   46.1118 N.1     1  ZINC000609484313   -0.4200
     24 C24         1.1818    1.2792   47.3886 C.3     1  ZINC000609484313   -0.0800
     25 C25         1.0569   -0.0702   48.0988 C.3     1  ZINC000609484313   -0.1400
     26 C26         1.9256    1.0917   46.0646 C.3     1  ZINC000609484313   -0.1500
     27 C27        -0.9202    3.2489   48.9546 C.3     1  ZINC000609484313    0.0500
     28 C28        -1.6544    3.2488   50.2975 C.3     1  ZINC000609484313    0.0400
     29 H29        -6.9555    3.1660   54.1916 H       1  ZINC000609484313    0.0500
     30 H30        -6.7457    4.7677   54.9390 H       1  ZINC000609484313    0.0500
     31 H31        -8.1557    4.4477   53.9007 H       1  ZINC000609484313    0.0500
     32 H32        -6.6543    4.1741   51.9463 H       1  ZINC000609484313    0.0600
     33 H33        -6.4446    5.7760   52.6937 H       1  ZINC000609484313    0.0600
     34 H34        -4.3728    5.2020   53.6485 H       1  ZINC000609484313    0.0800
     35 H35        -4.7066    3.4557   53.5624 H       1  ZINC000609484313    0.0600
     36 H36        -4.7543    4.7677   50.9230 H       1  ZINC000609484313    0.0700
     37 H37        -3.1784    4.9050   51.7387 H       1  ZINC000609484313    0.0800
     38 H38        -4.7903    0.8975   52.7621 H       1  ZINC000609484313    0.4200
     39 H39       -10.5593   -1.1962   51.7047 H       1  ZINC000609484313    0.0800
     40 H40       -10.4629   -0.1100   53.1116 H       1  ZINC000609484313    0.0900
     41 H41       -10.6598    0.5663   51.4769 H       1  ZINC000609484313    0.0900
     42 H42        -8.1835    1.8191   52.6745 H       1  ZINC000609484313    0.1900
     43 H43        -2.6210    0.7657   50.1836 H       1  ZINC000609484313    0.0800
     44 H44        -4.1389    1.1862   49.3536 H       1  ZINC000609484313    0.0800
     45 H45        -2.3783    0.4696   47.7430 H       1  ZINC000609484313    0.0900
     46 H46        -2.8594    2.1635   47.4800 H       1  ZINC000609484313    0.0400
     47 H47         1.7354    1.9729   48.0212 H       1  ZINC000609484313    0.0800
     48 H48         0.5032   -0.7640   47.4660 H       1  ZINC000609484313    0.0600
     49 H49         2.0514   -0.4714   48.2943 H       1  ZINC000609484313    0.0500
     50 H50         0.5271    0.0633   49.0420 H       1  ZINC000609484313    0.0700
     51 H51         2.8826    0.6047   46.2514 H       1  ZINC000609484313    0.0700
     52 H52         1.3271    0.4728   45.3961 H       1  ZINC000609484313    0.0600
     53 H53         2.0967    2.0643   45.6032 H       1  ZINC000609484313    0.0500
     54 H54         0.1196    3.5374   49.1086 H       1  ZINC000609484313    0.0900
     55 H55        -1.3983    3.9578   48.2787 H       1  ZINC000609484313    0.0400
     56 H56        -1.6409    4.2538   50.7193 H       1  ZINC000609484313    0.0800
     57 H57        -1.1598    2.5600   50.9823 H       1  ZINC000609484313    0.0800
@<TRIPOS>BOND
     1     1     2    1
     2     1    29    1
     3     1    30    1
     4     1    31    1
     5     2     3    1
     6     2    32    1
     7     2    33    1
     8     3     4    1
     9     3    34    1
    10     3    35    1
    11     4     5    1
    12     4    36    1
    13     4    37    1
    14     5     6    1
    15     5     7    1
    16     5    16    1
    17     7     8    2
    18     7     9   am
    19     9    10    1
    20     9    38    1
    21    10    15    1
    22    10    11    2
    23    11    12    1
    24    12    13    1
    25    13    14    1
    26    13    15    2
    27    14    39    1
    28    14    40    1
    29    14    41    1
    30    15    42    1
    31    16    28    1
    32    16    17    1
    33    17    18    1
    34    17    43    1
    35    17    44    1
    36    18    19    1
    37    18    45    1
    38    18    46    1
    39    19    20    1
    40    19    27    1
    41    20    21    1
    42    20    22    1
    43    20    24    1
    44    22    23    3
    45    24    25    1
    46    24    26    1
    47    24    47    1
    48    25    48    1
    49    25    49    1
    50    25    50    1
    51    26    51    1
    52    26    52    1
    53    26    53    1
    54    27    28    1
    55    27    54    1
    56    27    55    1
    57    28    56    1
    58    28    57    1
@<TRIPOS>SUBSTRUCTURE
     1 ZINC000609484313        1 TEMP              0 ****  ****    0 ROOT


##########                                Name:    ZINC000824084043
##########                DOCK_Rotatable_Bonds:                  11
##########                         Heavy_Atoms:                  27
##########                    Molecular_Weight:             382.547
##########                DOCK_Rotatable_Bonds:                  11
##########                       Formal_Charge:        -6.85453e-07
##########                     HBond_Acceptors:                   7
##########                        HBond_Donors:                   3
##########                         Heavy_Atoms:                  27
##########                          Grid_Score:          -34.243301
##########                     Grid_vdw_energy:          -31.447809
##########                      Grid_es_energy:           -2.795493
##########           Internal_energy_repulsive:           19.046906

@<TRIPOS>MOLECULE
ZINC000824084043
 65 66 1 0 0
SMALL
USER_CHARGES


@<TRIPOS>ATOM
      1 C1        -11.5555    0.2297   58.4792 C.3     1  ZINC000824084043   -0.1400
      2 C2        -10.4955    1.0769   57.7723 C.3     1  ZINC000824084043   -0.1000
      3 C3         -9.1133    0.4642   58.0070 C.3     1  ZINC000824084043   -0.1300
      4 C4        -10.7892    1.1130   56.2712 C.3     1  ZINC000824084043    0.1700
      5 H5        -11.8171    1.4376   56.1098 H       1  ZINC000824084043    0.0700
      6 C6         -9.8321    2.0916   55.5877 C.3     1  ZINC000824084043   -0.1400
      7 C7        -10.5127    2.6955   54.3576 C.3     1  ZINC000824084043    0.1300
      8 N8         -9.8439    2.2169   53.1452 N.am    1  ZINC000824084043   -0.6200
      9 C9        -10.5402    1.3023   52.2370 C.3     1  ZINC000824084043    0.0800
     10 C10        -8.5881    2.6181   52.8653 C.2     1  ZINC000824084043    0.7000
     11 O11        -8.0106    3.3783   53.6183 O.2     1  ZINC000824084043   -0.5800
     12 N12        -7.9722    2.1765   51.7508 N.am    1  ZINC000824084043   -0.7500
     13 C13        -6.6064    2.6111   51.4474 C.3     1  ZINC000824084043    0.1600
     14 C14        -5.6085    1.7273   52.2012 C.3     1  ZINC000824084043   -0.1600
     15 C15        -4.1841    2.1349   51.8184 C.3     1  ZINC000824084043   -0.0100
     16 N16        -3.9947    1.9662   50.3727 N.4     1  ZINC000824084043   -0.3800
     17 H17        -4.1936    1.0104   50.1178 H       1  ZINC000824084043    0.4200
     18 C18        -2.6045    2.2858   50.0218 C.3     1  ZINC000824084043    0.0000
     19 C19        -2.1322    1.3510   48.9064 C.3     1  ZINC000824084043   -0.1200
     20 C20        -1.8713    2.1488   47.6047 C.3     1  ZINC000824084043   -0.1400
     21 C21        -0.8751    1.2411   46.8414 C.3     1  ZINC000824084043   -0.1200
     22 C22         0.0399    0.6715   47.9451 C.3     1  ZINC000824084043   -0.1300
     23 C23        -0.7594    0.7413   49.2581 C.3     1  ZINC000824084043   -0.1100
     24 C24        -4.8990    2.8637   49.6438 C.3     1  ZINC000824084043    0.0000
     25 C25        -6.3509    2.4841   49.9428 C.3     1  ZINC000824084043   -0.1600
     26 N26       -10.6053   -0.2257   55.7052 N.am    1  ZINC000824084043   -0.7800
     27 C27       -11.6754   -1.0104   55.4694 C.2     1  ZINC000824084043    0.6600
     28 O28       -12.7998   -0.6055   55.7292 O.co2   1  ZINC000824084043   -0.7200
     29 O29       -11.5219   -2.1275   54.9955 O.co2   1  ZINC000824084043   -0.7300
     30 H30       -11.3462    0.2040   59.5485 H       1  ZINC000824084043    0.0500
     31 H31       -12.5402    0.6662   58.3119 H       1  ZINC000824084043    0.0500
     32 H32       -11.5352   -0.7844   58.0804 H       1  ZINC000824084043    0.0500
     33 H33       -10.5158    2.0912   58.1710 H       1  ZINC000824084043    0.0500
     34 H34        -9.0930   -0.5500   57.6082 H       1  ZINC000824084043    0.0600
     35 H35        -8.3581    1.0678   57.5035 H       1  ZINC000824084043    0.0700
     36 H36        -8.9040    0.4385   59.0764 H       1  ZINC000824084043    0.0300
     37 H37        -9.5675    2.8874   56.2840 H       1  ZINC000824084043    0.0700
     38 H38        -8.9298    1.5627   55.2806 H       1  ZINC000824084043    0.0600
     39 H39       -11.5601    2.3947   54.3376 H       1  ZINC000824084043    0.0900
     40 H40       -10.4475    3.7825   54.4034 H       1  ZINC000824084043    0.0900
     41 H41       -11.0857    1.8780   51.4893 H       1  ZINC000824084043    0.0600
     42 H42        -9.8132    0.6592   51.7410 H       1  ZINC000824084043    0.0600
     43 H43       -11.2399    0.6890   52.8050 H       1  ZINC000824084043    0.0800
     44 H44        -8.4333    1.5708   51.1494 H       1  ZINC000824084043    0.4000
     45 H45        -6.4782    3.6496   51.7525 H       1  ZINC000824084043    0.1100
     46 H46        -5.7476    1.8551   53.2746 H       1  ZINC000824084043    0.1200
     47 H47        -5.7726    0.6834   51.9338 H       1  ZINC000824084043    0.0900
     48 H48        -4.0210    3.1788   52.0864 H       1  ZINC000824084043    0.1300
     49 H49        -3.4710    1.5077   52.3535 H       1  ZINC000824084043    0.1300
     50 H50        -2.5444    3.3190   49.6798 H       1  ZINC000824084043    0.1300
     51 H51        -1.9695    2.1557   50.8981 H       1  ZINC000824084043    0.1300
     52 H52        -2.8661    0.5639   48.7332 H       1  ZINC000824084043    0.1000
     53 H53        -2.7932    2.2738   47.0368 H       1  ZINC000824084043    0.0700
     54 H54        -1.4198    3.1155   47.8280 H       1  ZINC000824084043    0.0800
     55 H55        -1.4054    0.4363   46.3323 H       1  ZINC000824084043    0.0700
     56 H56        -0.2941    1.8268   46.1290 H       1  ZINC000824084043    0.0800
     57 H57         0.2974   -0.3633   47.7193 H       1  ZINC000824084043    0.0700
     58 H58         0.9453    1.2728   48.0267 H       1  ZINC000824084043    0.0700
     59 H59        -0.2419    1.3766   49.9769 H       1  ZINC000824084043    0.0700
     60 H60        -0.8898   -0.2595   49.6695 H       1  ZINC000824084043    0.0800
     61 H61        -4.7206    3.8920   49.9580 H       1  ZINC000824084043    0.1300
     62 H62        -4.7137    2.7745   48.5734 H       1  ZINC000824084043    0.1300
     63 H63        -6.5304    1.4560   49.6287 H       1  ZINC000824084043    0.0900
     64 H64        -7.0206    3.1528   49.4021 H       1  ZINC000824084043    0.1200
     65 H65        -9.7134   -0.5473   55.5005 H       1  ZINC000824084043    0.3600
@<TRIPOS>BOND
     1     1     2    1
     2     1    30    1
     3     1    31    1
     4     1    32    1
     5     2     3    1
     6     2     4    1
     7     2    33    1
     8     3    34    1
     9     3    35    1
    10     3    36    1
    11     4     5    1
    12     4     6    1
    13     4    26    1
    14     6     7    1
    15     6    37    1
    16     6    38    1
    17     7     8    1
    18     7    39    1
    19     7    40    1
    20     8     9    1
    21     8    10   am
    22     9    41    1
    23     9    42    1
    24     9    43    1
    25    10    11    2
    26    10    12   am
    27    12    13    1
    28    12    44    1
    29    13    25    1
    30    13    14    1
    31    13    45    1
    32    14    15    1
    33    14    46    1
    34    14    47    1
    35    15    16    1
    36    15    48    1
    37    15    49    1
    38    16    17    1
    39    16    18    1
    40    16    24    1
    41    18    19    1
    42    18    50    1
    43    18    51    1
    44    19    23    1
    45    19    20    1
    46    19    52    1
    47    20    21    1
    48    20    53    1
    49    20    54    1
    50    21    22    1
    51    21    55    1
    52    21    56    1
    53    22    23    1
    54    22    57    1
    55    22    58    1
    56    23    59    1
    57    23    60    1
    58    24    25    1
    59    24    61    1
    60    24    62    1
    61    25    63    1
    62    25    64    1
    63    26    27   am
    64    26    65    1
    65    27    28   ar
    66    27    29   ar
@<TRIPOS>SUBSTRUCTURE
     1 ZINC000824084043        1 TEMP              0 ****  ****    0 ROOT


##########                                Name:    ZINC001362587626
##########                DOCK_Rotatable_Bonds:                   9
##########                         Heavy_Atoms:                  25
##########                    Molecular_Weight:             346.346
##########                DOCK_Rotatable_Bonds:                   9
##########                       Formal_Charge:        -4.02331e-07
##########                     HBond_Acceptors:                  10
##########                        HBond_Donors:                   2
##########                         Heavy_Atoms:                  25
##########                          Grid_Score:          -34.237812
##########                     Grid_vdw_energy:          -33.580299
##########                      Grid_es_energy:           -0.657513
##########           Internal_energy_repulsive:           10.796168

@<TRIPOS>MOLECULE
ZINC001362587626
 43 45 1 0 0
SMALL
USER_CHARGES


@<TRIPOS>ATOM
      1 C1         -2.5020    3.8550   52.0558 C.3     1  ZINC001362587626   -0.1600
      2 C2         -3.3567    3.1635   50.9916 C.3     1  ZINC001362587626    0.1300
      3 H3         -4.1136    3.8576   50.6263 H       1  ZINC001362587626    0.1200
      4 N4         -4.0112    1.9909   51.5772 N.am    1  ZINC001362587626   -0.7100
      5 C5         -5.2731    1.6767   51.2233 C.2     1  ZINC001362587626    0.5100
      6 O6         -5.8663    2.3638   50.4190 O.2     1  ZINC001362587626   -0.5000
      7 C7         -5.9470    0.4714   51.8270 C.3     1  ZINC001362587626    0.1000
      8 N8         -7.3831    0.7297   51.9583 N.pl3   1  ZINC001362587626   -0.3100
      9 C9         -7.9638    1.9242   52.1764 C.2     1  ZINC001362587626    0.1600
     10 N10        -9.2560    1.7107   52.2271 N.2     1  ZINC001362587626   -0.3000
     11 N11        -9.4584    0.4509   52.0493 N.2     1  ZINC001362587626   -0.0700
     12 N12        -8.3291   -0.1441   51.8811 N.2     1  ZINC001362587626   -0.0700
     13 C13        -2.4787    2.7294   49.8465 C.2     1  ZINC001362587626    0.5100
     14 O14        -1.5299    3.4100   49.5178 O.2     1  ZINC001362587626   -0.5200
     15 N15        -2.7475    1.5848   49.1875 N.am    1  ZINC001362587626   -0.6600
     16 C16        -1.9312    1.1812   48.1228 C.ar    1  ZINC001362587626    0.1000
     17 C17        -1.8877    1.9339   46.9569 C.ar    1  ZINC001362587626   -0.1000
     18 C18        -1.0825    1.5359   45.9081 C.ar    1  ZINC001362587626   -0.1900
     19 C19        -0.3176    0.3839   46.0189 C.ar    1  ZINC001362587626    0.1200
     20 O20         0.4747   -0.0078   44.9855 O.3     1  ZINC001362587626   -0.2800
     21 C21         1.4579    0.9249   44.5322 C.3     1  ZINC001362587626    0.0100
     22 C22         2.6573    1.0773   45.4867 C.3     1  ZINC001362587626    0.0200
     23 O23         3.2708    0.0363   44.7000 O.3     1  ZINC001362587626   -0.3700
     24 C24         2.4701    0.3271   43.5369 C.3     1  ZINC001362587626    0.0400
     25 C25        -0.3602   -0.3685   47.1836 C.ar    1  ZINC001362587626   -0.1300
     26 C26        -1.1609    0.0314   48.2352 C.ar    1  ZINC001362587626   -0.0800
     27 H27        -1.7451    3.1610   52.4212 H       1  ZINC001362587626    0.0700
     28 H28        -2.0151    4.7275   51.6202 H       1  ZINC001362587626    0.0800
     29 H29        -3.1371    4.1691   52.8841 H       1  ZINC001362587626    0.0800
     30 H30        -3.5363    1.4407   52.2195 H       1  ZINC001362587626    0.4100
     31 H31        -5.7909   -0.3932   51.1819 H       1  ZINC001362587626    0.1500
     32 H32        -5.5221    0.2723   52.8107 H       1  ZINC001362587626    0.1400
     33 H33        -7.4622    2.8742   52.2886 H       1  ZINC001362587626    0.2400
     34 H34        -3.5061    1.0405   49.4504 H       1  ZINC001362587626    0.4100
     35 H35        -2.4837    2.8304   46.8702 H       1  ZINC001362587626    0.1300
     36 H36        -1.0486    2.1212   45.0011 H       1  ZINC001362587626    0.1400
     37 H37         1.0283    1.8725   44.2075 H       1  ZINC001362587626    0.0900
     38 H38         3.1606    2.0412   45.4120 H       1  ZINC001362587626    0.1000
     39 H39         2.4428    0.7848   46.5146 H       1  ZINC001362587626    0.1000
     40 H40         2.1072   -0.5603   43.0183 H       1  ZINC001362587626    0.1000
     41 H41         2.9163    1.0619   42.8668 H       1  ZINC001362587626    0.1000
     42 H42         0.2356   -1.2651   47.2692 H       1  ZINC001362587626    0.1400
     43 H43        -1.1937   -0.5541   49.1422 H       1  ZINC001362587626    0.1500
@<TRIPOS>BOND
     1     1     2    1
     2     1    27    1
     3     1    28    1
     4     1    29    1
     5     2     3    1
     6     2     4    1
     7     2    13    1
     8     4     5   am
     9     4    30    1
    10     5     6    2
    11     5     7    1
    12     7     8    1
    13     7    31    1
    14     7    32    1
    15     8    12    1
    16     8     9    1
    17     9    10    2
    18     9    33    1
    19    10    11    1
    20    11    12    2
    21    13    14    2
    22    13    15   am
    23    15    16    1
    24    15    34    1
    25    16    26   ar
    26    16    17   ar
    27    17    18   ar
    28    17    35    1
    29    18    19   ar
    30    18    36    1
    31    19    20    1
    32    19    25   ar
    33    20    21    1
    34    21    24    1
    35    21    22    1
    36    21    37    1
    37    22    23    1
    38    22    38    1
    39    22    39    1
    40    23    24    1
    41    24    40    1
    42    24    41    1
    43    25    26   ar
    44    25    42    1
    45    26    43    1
@<TRIPOS>SUBSTRUCTURE
     1 ZINC001362587626        1 TEMP              0 ****  ****    0 ROOT


##########                                Name:    ZINC000058174787
##########                DOCK_Rotatable_Bonds:                   9
##########                         Heavy_Atoms:                  27
##########                    Molecular_Weight:             413.882
##########                DOCK_Rotatable_Bonds:                   9
##########                       Formal_Charge:           0.0200002
##########                     HBond_Acceptors:                  10
##########                        HBond_Donors:                   1
##########                         Heavy_Atoms:                  27
##########                          Grid_Score:          -34.227894
##########                     Grid_vdw_energy:          -34.091686
##########                      Grid_es_energy:           -0.136207
##########           Internal_energy_repulsive:            6.484516

@<TRIPOS>MOLECULE
ZINC000058174787
 47 48 1 0 0
SMALL
USER_CHARGES


@<TRIPOS>ATOM
      1 C1         -6.2020    1.0204   51.6172 C.3     1  ZINC000058174787   -0.0700
      2 C2         -7.6559    1.0847   52.0087 C.2     1  ZINC000058174787    0.2100
      3 N3         -8.5103    0.1019   51.9245 N.2     1  ZINC000058174787   -0.4200
      4 C4         -9.7086    0.5191   52.3597 C.2     1  ZINC000058174787   -0.5600
      5 S5        -11.1775   -0.4510   52.4367 S.o2    1  ZINC000058174787    2.7400
      6 O6        -12.2584    0.4655   52.5412 O.2     1  ZINC000058174787   -0.9500
      7 O7        -11.0750   -1.4171   51.3998 O.2     1  ZINC000058174787   -0.9600
      8 N8        -11.1364   -1.2903   53.8637 N.am    1  ZINC000058174787   -1.1100
      9 C9        -11.0799   -0.5679   55.1369 C.3     1  ZINC000058174787    0.1300
     10 C10       -11.6529   -1.4489   56.2489 C.3     1  ZINC000058174787   -0.1200
     11 C11       -13.0888   -1.0680   56.5020 C.2     1  ZINC000058174787    0.4700
     12 O12       -13.7893   -0.7093   55.5852 O.2     1  ZINC000058174787   -0.5000
     13 O13       -13.5897   -1.1274   57.7459 O.3     1  ZINC000058174787   -0.3300
     14 C14       -13.7385   -2.4464   58.3344 C.3     1  ZINC000058174787    0.0400
     15 H15       -13.0758   -3.1475   57.8270 H       1  ZINC000058174787    0.1200
     16 C16       -15.1877   -2.9126   58.1816 C.3     1  ZINC000058174787   -0.1700
     17 C17       -13.3815   -2.3869   59.7973 C.2     1  ZINC000058174787    0.4000
     18 O18       -14.1488   -2.8267   60.6271 O.2     1  ZINC000058174787   -0.4200
     19 C19       -12.1024   -1.7955   60.2188 C.ar    1  ZINC000058174787   -0.1600
     20 C20       -10.8952   -2.3240   59.7490 C.ar    1  ZINC000058174787   -0.0600
     21 C21        -9.7005   -1.7646   60.1478 C.ar    1  ZINC000058174787   -0.1200
     22 C22        -9.6930   -0.6812   61.0118 C.ar    1  ZINC000058174787    0.0000
     23 Cl23       -8.1834    0.0174   61.5082 Cl      1  ZINC000058174787   -0.0500
     24 C24       -10.8849   -0.1526   61.4810 C.ar    1  ZINC000058174787   -0.1200
     25 C25       -12.0873   -0.6984   61.0867 C.ar    1  ZINC000058174787   -0.0400
     26 C26        -9.5921    1.8094   52.7273 C.2     1  ZINC000058174787    0.0700
     27 N27        -8.2889    2.1671   52.5099 N.pl3   1  ZINC000058174787   -0.4500
     28 C28        -7.6940    3.4813   52.7652 C.3     1  ZINC000058174787    0.0600
     29 H29        -5.6082    0.7059   52.4756 H       1  ZINC000058174787    0.0900
     30 H30        -6.0754    0.3037   50.8058 H       1  ZINC000058174787    0.1000
     31 H31        -5.8706    2.0050   51.2874 H       1  ZINC000058174787    0.0800
     32 H32       -11.1497   -2.2601   53.8564 H       1  ZINC000058174787    0.4200
     33 H33       -10.0441   -0.3191   55.3680 H       1  ZINC000058174787    0.0900
     34 H34       -11.6656    0.3483   55.0612 H       1  ZINC000058174787    0.0900
     35 H35       -11.6024   -2.4949   55.9463 H       1  ZINC000058174787    0.1200
     36 H36       -11.0731   -1.3062   57.1608 H       1  ZINC000058174787    0.1200
     37 H37       -15.8503   -2.2115   58.6891 H       1  ZINC000058174787    0.0800
     38 H38       -15.4458   -2.9557   57.1235 H       1  ZINC000058174787    0.0800
     39 H39       -15.2993   -3.9028   58.6234 H       1  ZINC000058174787    0.0800
     40 H40       -10.8994   -3.1686   59.0760 H       1  ZINC000058174787    0.1400
     41 H41        -8.7677   -2.1717   59.7863 H       1  ZINC000058174787    0.1400
     42 H42       -10.8716    0.6919   62.1542 H       1  ZINC000058174787    0.1400
     43 H43       -13.0154   -0.2852   61.4528 H       1  ZINC000058174787    0.1500
     44 H44       -10.3755    2.4395   53.1220 H       1  ZINC000058174787    0.1900
     45 H45        -7.3067    3.5132   53.7836 H       1  ZINC000058174787    0.0900
     46 H46        -6.8800    3.6545   52.0614 H       1  ZINC000058174787    0.1000
     47 H47        -8.4526    4.2540   52.6406 H       1  ZINC000058174787    0.0900
@<TRIPOS>BOND
     1     1     2    1
     2     1    29    1
     3     1    30    1
     4     1    31    1
     5     2    27    1
     6     2     3    2
     7     3     4    1
     8     4     5    1
     9     4    26    2
    10     5     6    2
    11     5     7    2
    12     5     8   am
    13     8     9    1
    14     8    32    1
    15     9    10    1
    16     9    33    1
    17     9    34    1
    18    10    11    1
    19    10    35    1
    20    10    36    1
    21    11    12    2
    22    11    13    1
    23    13    14    1
    24    14    15    1
    25    14    16    1
    26    14    17    1
    27    16    37    1
    28    16    38    1
    29    16    39    1
    30    17    18    2
    31    17    19    1
    32    19    25   ar
    33    19    20   ar
    34    20    21   ar
    35    20    40    1
    36    21    22   ar
    37    21    41    1
    38    22    23    1
    39    22    24   ar
    40    24    25   ar
    41    24    42    1
    42    25    43    1
    43    26    27    1
    44    26    44    1
    45    27    28    1
    46    28    45    1
    47    28    46    1
    48    28    47    1
@<TRIPOS>SUBSTRUCTURE
     1 ZINC000058174787        1 TEMP              0 ****  ****    0 ROOT


##########                                Name:    ZINC000530457945
##########                DOCK_Rotatable_Bonds:                   4
##########                         Heavy_Atoms:                  25
##########                    Molecular_Weight:             355.827
##########                DOCK_Rotatable_Bonds:                   4
##########                       Formal_Charge:           0.0199997
##########                     HBond_Acceptors:                   7
##########                        HBond_Donors:                   1
##########                         Heavy_Atoms:                  25
##########                          Grid_Score:          -34.201206
##########                     Grid_vdw_energy:          -32.089832
##########                      Grid_es_energy:           -2.111376
##########           Internal_energy_repulsive:           31.868441

@<TRIPOS>MOLECULE
ZINC000530457945
 43 46 1 0 0
SMALL
USER_CHARGES


@<TRIPOS>ATOM
      1 C1         -0.4650    2.1663   46.2465 C.3     1  ZINC000530457945   -0.1700
      2 C2         -1.1803    1.0643   47.0306 C.3     1  ZINC000530457945    0.0900
      3 H3         -2.2390    1.0528   46.7718 H       1  ZINC000530457945    0.1100
      4 C4         -1.0128    1.3048   48.5458 C.3     1  ZINC000530457945   -0.1200
      5 H5         -0.1310    1.9142   48.7441 H       1  ZINC000530457945    0.1100
      6 C6         -2.2458    1.9519   49.1220 C.2     1  ZINC000530457945    0.5300
      7 O7         -2.2003    3.0966   49.5199 O.2     1  ZINC000530457945   -0.4700
      8 N8         -3.3992    1.2583   49.1951 N.am    1  ZINC000530457945   -0.6200
      9 C9         -4.5415    1.8574   49.7305 C.2     1  ZINC000530457945    0.4800
     10 N10        -5.3567    1.2979   50.6015 N.2     1  ZINC000530457945   -0.3000
     11 N11        -6.3678    2.2297   50.8764 N.pl3   1  ZINC000530457945   -0.2800
     12 C12        -7.4595    2.2029   51.6855 C.2     1  ZINC000530457945    0.1400
     13 C13        -8.2875    3.2707   51.7596 C.2     1  ZINC000530457945   -0.0800
     14 Cl14       -9.6771    3.2181   52.7987 Cl      1  ZINC000530457945   -0.0200
     15 C15        -8.0256    4.4205   50.9992 C.2     1  ZINC000530457945   -0.0500
     16 C16        -6.9331    4.4550   50.1863 C.2     1  ZINC000530457945   -0.0900
     17 C17        -6.0860    3.3343   50.1240 C.2     1  ZINC000530457945    0.3000
     18 N18        -4.9714    3.0822   49.4447 N.2     1  ZINC000530457945   -0.5500
     19 C19        -0.8269   -0.1287   49.1088 C.3     1  ZINC000530457945   -0.1200
     20 C20        -0.0177   -0.8075   47.9756 C.3     1  ZINC000530457945    0.0400
     21 N21        -0.5745   -0.2442   46.7231 N.3     1  ZINC000530457945   -0.4900
     22 C22         0.4163   -0.1199   45.7464 C.ar    1  ZINC000530457945    0.1000
     23 C23         1.6697    0.3738   46.0853 C.ar    1  ZINC000530457945   -0.1600
     24 C24         2.6472    0.4949   45.1172 C.ar    1  ZINC000530457945   -0.1100
     25 C25         2.3791    0.1259   43.8117 C.ar    1  ZINC000530457945   -0.1300
     26 C26         1.1325   -0.3658   43.4710 C.ar    1  ZINC000530457945   -0.1100
     27 C27         0.1522   -0.4951   44.4352 C.ar    1  ZINC000530457945   -0.1000
     28 H28        -0.4804    1.9245   45.1838 H       1  ZINC000530457945    0.0700
     29 H29        -0.9726    3.1168   46.4102 H       1  ZINC000530457945    0.0600
     30 H30         0.5678    2.2425   46.5868 H       1  ZINC000530457945    0.0600
     31 H31        -3.4358    0.3431   48.8757 H       1  ZINC000530457945    0.4300
     32 H32        -7.6681    1.3217   52.2741 H       1  ZINC000530457945    0.1800
     33 H33        -8.6863    5.2727   51.0578 H       1  ZINC000530457945    0.1600
     34 H34        -6.7201    5.3336   49.5954 H       1  ZINC000530457945    0.1700
     35 H35        -0.2584   -0.1124   50.0386 H       1  ZINC000530457945    0.0900
     36 H36        -1.7893   -0.6206   49.2500 H       1  ZINC000530457945    0.0900
     37 H37         1.0406   -0.5625   48.0658 H       1  ZINC000530457945    0.0700
     38 H38        -0.1617   -1.8876   48.0010 H       1  ZINC000530457945    0.0900
     39 H39         1.8795    0.6628   47.1045 H       1  ZINC000530457945    0.1200
     40 H40         3.6220    0.8787   45.3799 H       1  ZINC000530457945    0.1200
     41 H41         3.1451    0.2224   43.0564 H       1  ZINC000530457945    0.1200
     42 H42         0.9263   -0.6532   42.4505 H       1  ZINC000530457945    0.1300
     43 H43        -0.8212   -0.8794   44.1686 H       1  ZINC000530457945    0.1300
@<TRIPOS>BOND
     1     1     2    1
     2     1    28    1
     3     1    29    1
     4     1    30    1
     5     2     3    1
     6     2    21    1
     7     2     4    1
     8     4     5    1
     9     4     6    1
    10     4    19    1
    11     6     7    2
    12     6     8   am
    13     8     9    1
    14     8    31    1
    15     9    18    1
    16     9    10    2
    17    10    11    1
    18    11    17    1
    19    11    12    1
    20    12    13    2
    21    12    32    1
    22    13    14    1
    23    13    15    1
    24    15    16    2
    25    15    33    1
    26    16    17    1
    27    16    34    1
    28    17    18    2
    29    19    20    1
    30    19    35    1
    31    19    36    1
    32    20    21    1
    33    20    37    1
    34    20    38    1
    35    21    22    1
    36    22    27   ar
    37    22    23   ar
    38    23    24   ar
    39    23    39    1
    40    24    25   ar
    41    24    40    1
    42    25    26   ar
    43    25    41    1
    44    26    27   ar
    45    26    42    1
    46    27    43    1
@<TRIPOS>SUBSTRUCTURE
     1 ZINC000530457945        1 TEMP              0 ****  ****    0 ROOT


##########                                Name:    ZINC000195331548
##########                DOCK_Rotatable_Bonds:                   7
##########                         Heavy_Atoms:                  26
##########                    Molecular_Weight:             378.539
##########                DOCK_Rotatable_Bonds:                   7
##########                       Formal_Charge:          -0.0100004
##########                     HBond_Acceptors:                   7
##########                        HBond_Donors:                   2
##########                         Heavy_Atoms:                  26
##########                          Grid_Score:          -34.173626
##########                     Grid_vdw_energy:          -32.953243
##########                      Grid_es_energy:           -1.220383
##########           Internal_energy_repulsive:           24.839905

@<TRIPOS>MOLECULE
ZINC000195331548
 56 58 1 0 0
SMALL
USER_CHARGES


@<TRIPOS>ATOM
      1 C1         -9.9174    1.7721   57.7002 C.3     1  ZINC000195331548   -0.0800
      2 C2         -8.6227    2.1975   57.0569 C.2     1  ZINC000195331548    0.0700
      3 C3         -7.4602    2.2170   57.7158 C.2     1  ZINC000195331548   -0.2600
      4 S4         -6.2128    2.7652   56.5986 S.3     1  ZINC000195331548    0.1100
      5 C5         -7.3800    2.9218   55.3590 C.2     1  ZINC000195331548    0.0600
      6 C6         -7.0898    3.3853   53.9546 C.3     1  ZINC000195331548   -0.0100
      7 H7         -6.2846    4.1197   53.9723 H       1  ZINC000195331548    0.1100
      8 C8         -8.3479    4.0202   53.3557 C.3     1  ZINC000195331548   -0.1200
      9 C9         -8.0623    4.4337   51.9093 C.3     1  ZINC000195331548   -0.1100
     10 C10        -7.6153    3.2064   51.1119 C.3     1  ZINC000195331548    0.0500
     11 N11        -6.4085    2.6361   51.7242 N.3     1  ZINC000195331548   -0.5200
     12 C12        -5.8712    1.5400   50.9069 C.3     1  ZINC000195331548    0.0400
     13 C13        -4.7915    2.0722   50.0003 C.2     1  ZINC000195331548    0.5100
     14 O14        -4.9216    3.1566   49.4742 O.2     1  ZINC000195331548   -0.4400
     15 N15        -3.6810    1.3425   49.7744 N.am    1  ZINC000195331548   -0.7000
     16 C16        -2.7161    1.8176   48.9624 C.2     1  ZINC000195331548    0.6900
     17 O17        -2.8478    2.9036   48.4325 O.2     1  ZINC000195331548   -0.5300
     18 N18        -1.6049    1.0887   48.7378 N.am    1  ZINC000195331548   -0.7300
     19 C19        -0.5552    1.6061   47.8564 C.3     1  ZINC000195331548    0.1700
     20 H20        -0.7687    2.6458   47.6085 H       1  ZINC000195331548    0.0900
     21 C21        -0.5111    0.7744   46.5730 C.3     1  ZINC000195331548   -0.1300
     22 C22        -0.2115   -0.6851   46.9210 C.3     1  ZINC000195331548   -0.1200
     23 C23         1.1404   -0.7726   47.6321 C.3     1  ZINC000195331548   -0.1200
     24 C24         1.0964    0.0591   48.9156 C.3     1  ZINC000195331548   -0.1100
     25 C25         0.7967    1.5185   48.5675 C.3     1  ZINC000195331548   -0.1000
     26 H26         1.5777    1.9034   47.9118 H       1  ZINC000195331548    0.0900
     27 C27         0.7525    2.3502   49.8510 C.3     1  ZINC000195331548   -0.1500
     28 C28        -6.6710    2.1884   53.0979 C.3     1  ZINC000195331548    0.0600
     29 N29        -8.5441    2.5805   55.7984 N.2     1  ZINC000195331548   -0.4700
     30 H30       -10.0517    0.6982   57.5709 H       1  ZINC000195331548    0.0800
     31 H31        -9.8898    2.0093   58.7637 H       1  ZINC000195331548    0.0800
     32 H32       -10.7471    2.3011   57.2313 H       1  ZINC000195331548    0.0800
     33 H33        -7.3109    1.9415   58.7493 H       1  ZINC000195331548    0.1800
     34 H34        -9.1642    3.2982   53.3738 H       1  ZINC000195331548    0.0600
     35 H35        -8.6254    4.8985   53.9386 H       1  ZINC000195331548    0.0700
     36 H36        -8.9668    4.8476   51.4638 H       1  ZINC000195331548    0.0800
     37 H37        -7.2723    5.1847   51.8947 H       1  ZINC000195331548    0.0800
     38 H38        -7.3973    3.5001   50.0851 H       1  ZINC000195331548    0.0800
     39 H39        -8.4110    2.4616   51.1153 H       1  ZINC000195331548    0.0400
     40 H40        -6.6716    1.1097   50.3049 H       1  ZINC000195331548    0.1200
     41 H41        -5.4532    0.7723   51.5581 H       1  ZINC000195331548    0.0700
     42 H42        -3.5764    0.4754   50.1963 H       1  ZINC000195331548    0.4100
     43 H43        -1.5003    0.2215   49.1596 H       1  ZINC000195331548    0.4000
     44 H44         0.2699    1.1593   45.9173 H       1  ZINC000195331548    0.0700
     45 H45        -1.4742    0.8367   46.0663 H       1  ZINC000195331548    0.0700
     46 H46        -0.1800   -1.2776   46.0066 H       1  ZINC000195331548    0.0600
     47 H47        -0.9924   -1.0700   47.5767 H       1  ZINC000195331548    0.0600
     48 H48         1.3539   -1.8123   47.8800 H       1  ZINC000195331548    0.0600
     49 H49         1.9214   -0.3876   46.9764 H       1  ZINC000195331548    0.0600
     50 H50         0.3153   -0.3258   49.5713 H       1  ZINC000195331548    0.0600
     51 H51         2.0595   -0.0032   49.4222 H       1  ZINC000195331548    0.0700
     52 H52        -0.0285    1.9654   50.5067 H       1  ZINC000195331548    0.0500
     53 H53         1.7157    2.2879   50.3576 H       1  ZINC000195331548    0.0600
     54 H54         0.5391    3.3899   49.6031 H       1  ZINC000195331548    0.0600
     55 H55        -7.4712    1.4483   53.0920 H       1  ZINC000195331548    0.0400
     56 H56        -5.7673    1.7427   53.5135 H       1  ZINC000195331548    0.0900
@<TRIPOS>BOND
     1     1     2    1
     2     1    30    1
     3     1    31    1
     4     1    32    1
     5     2    29    1
     6     2     3    2
     7     3     4    1
     8     3    33    1
     9     4     5    1
    10     5     6    1
    11     5    29    2
    12     6     7    1
    13     6    28    1
    14     6     8    1
    15     8     9    1
    16     8    34    1
    17     8    35    1
    18     9    10    1
    19     9    36    1
    20     9    37    1
    21    10    11    1
    22    10    38    1
    23    10    39    1
    24    11    12    1
    25    11    28    1
    26    12    13    1
    27    12    40    1
    28    12    41    1
    29    13    14    2
    30    13    15   am
    31    15    16   am
    32    15    42    1
    33    16    17    2
    34    16    18   am
    35    18    19    1
    36    18    43    1
    37    19    20    1
    38    19    25    1
    39    19    21    1
    40    21    22    1
    41    21    44    1
    42    21    45    1
    43    22    23    1
    44    22    46    1
    45    22    47    1
    46    23    24    1
    47    23    48    1
    48    23    49    1
    49    24    25    1
    50    24    50    1
    51    24    51    1
    52    25    26    1
    53    25    27    1
    54    27    52    1
    55    27    53    1
    56    27    54    1
    57    28    55    1
    58    28    56    1
@<TRIPOS>SUBSTRUCTURE
     1 ZINC000195331548        1 TEMP              0 ****  ****    0 ROOT


##########                                Name:    ZINC000772422035
##########                DOCK_Rotatable_Bonds:                  10
##########                         Heavy_Atoms:                  25
##########                    Molecular_Weight:             348.399
##########                DOCK_Rotatable_Bonds:                  10
##########                       Formal_Charge:          0.00999987
##########                     HBond_Acceptors:                   7
##########                        HBond_Donors:                   0
##########                         Heavy_Atoms:                  25
##########                          Grid_Score:          -34.169392
##########                     Grid_vdw_energy:          -33.303764
##########                      Grid_es_energy:           -0.865627
##########           Internal_energy_repulsive:           18.903862

@<TRIPOS>MOLECULE
ZINC000772422035
 49 50 1 0 0
SMALL
USER_CHARGES


@<TRIPOS>ATOM
      1 C1        -10.1750   -0.9216   51.5765 C.3     1  ZINC000772422035    0.0300
      2 O2        -10.7177    0.3384   51.9765 O.3     1  ZINC000772422035   -0.3900
      3 C3         -9.9292    1.0291   52.9476 C.3     1  ZINC000772422035    0.0600
      4 C4         -8.5926    1.4352   52.3238 C.3     1  ZINC000772422035    0.0700
      5 O5         -7.8613    2.2430   53.2483 O.3     1  ZINC000772422035   -0.3000
      6 C6         -6.6224    2.6454   52.8689 C.ar    1  ZINC000772422035    0.3300
      7 C7         -6.1307    2.2760   51.6237 C.ar    1  ZINC000772422035   -0.1700
      8 C8         -4.8653    2.6932   51.2485 C.ar    1  ZINC000772422035   -0.0200
      9 C9         -4.2953    2.3142   49.9059 C.3     1  ZINC000772422035    0.1100
     10 O10        -2.9073    1.9183   50.0637 O.3     1  ZINC000772422035   -0.3500
     11 C11        -2.1671    1.8335   48.9471 C.2     1  ZINC000772422035    0.4700
     12 O12        -2.6228    2.2028   47.8907 O.2     1  ZINC000772422035   -0.5000
     13 C13        -0.7678    1.2777   49.0111 C.3     1  ZINC000772422035   -0.1100
     14 C14        -0.6460    0.0914   48.0525 C.3     1  ZINC000772422035    0.0000
     15 H15        -1.4880    0.0957   47.3604 H       1  ZINC000772422035    0.1000
     16 C16        -0.6497   -1.2130   48.8522 C.3     1  ZINC000772422035   -0.1500
     17 C17         0.6419    0.2019   47.2777 C.2     1  ZINC000772422035   -0.2000
     18 C18         0.8211    0.1001   45.9390 C.2     1  ZINC000772422035   -0.0200
     19 C19        -0.2436   -0.1519   44.9027 C.3     1  ZINC000772422035   -0.0800
     20 O20         2.1325    0.2675   45.7179 O.3     1  ZINC000772422035    0.1000
     21 N21         2.7370    0.4527   46.7487 N.2     1  ZINC000772422035   -0.3600
     22 C22         1.9417    0.4421   47.7792 C.2     1  ZINC000772422035    0.0300
     23 C23         2.3308    0.6374   49.2219 C.3     1  ZINC000772422035   -0.0800
     24 C24        -4.1335    3.4687   52.1369 C.ar    1  ZINC000772422035   -0.1900
     25 C25        -4.6854    3.7985   53.3590 C.ar    1  ZINC000772422035    0.1400
     26 N26        -5.8967    3.3904   53.6862 N.ar    1  ZINC000772422035   -0.5300
     27 H27       -10.8315   -1.3823   50.8385 H       1  ZINC000772422035    0.0900
     28 H28        -9.1877   -0.7699   51.1403 H       1  ZINC000772422035    0.0400
     29 H29       -10.0916   -1.5738   52.4460 H       1  ZINC000772422035    0.0400
     30 H30       -10.4610    1.9207   53.2799 H       1  ZINC000772422035    0.0600
     31 H31        -9.7483    0.3750   53.8006 H       1  ZINC000772422035    0.0700
     32 H32        -8.0156    0.5412   52.0869 H       1  ZINC000772422035    0.0800
     33 H33        -8.7750    2.0023   51.4110 H       1  ZINC000772422035    0.0800
     34 H34        -6.7274    1.6711   50.9571 H       1  ZINC000772422035    0.1400
     35 H35        -4.8653    1.4831   49.4907 H       1  ZINC000772422035    0.0900
     36 H36        -4.3551    3.1686   49.2316 H       1  ZINC000772422035    0.0900
     37 H37        -0.0560    2.0515   48.7239 H       1  ZINC000772422035    0.1100
     38 H38        -0.5544    0.9468   50.0275 H       1  ZINC000772422035    0.1100
     39 H39         0.1125   -1.1646   49.6299 H       1  ZINC000772422035    0.0600
     40 H40        -1.6282   -1.3552   49.3109 H       1  ZINC000772422035    0.0800
     41 H41        -0.4360   -2.0485   48.1855 H       1  ZINC000772422035    0.0600
     42 H42        -0.7100    0.7931   44.6239 H       1  ZINC000772422035    0.0900
     43 H43         0.2076   -0.6083   44.0217 H       1  ZINC000772422035    0.0900
     44 H44        -0.9986   -0.8226   45.3130 H       1  ZINC000772422035    0.0900
     45 H45         2.2075    1.6859   49.4928 H       1  ZINC000772422035    0.0800
     46 H46         1.6944    0.0209   49.8566 H       1  ZINC000772422035    0.0800
     47 H47         3.3723    0.3466   49.3599 H       1  ZINC000772422035    0.0800
     48 H48        -3.1429    3.8104   51.8754 H       1  ZINC000772422035    0.1400
     49 H49        -4.1202    4.4018   54.0539 H       1  ZINC000772422035    0.1700
@<TRIPOS>BOND
     1     1     2    1
     2     1    27    1
     3     1    28    1
     4     1    29    1
     5     2     3    1
     6     3     4    1
     7     3    30    1
     8     3    31    1
     9     4     5    1
    10     4    32    1
    11     4    33    1
    12     5     6    1
    13     6    26   ar
    14     6     7   ar
    15     7     8   ar
    16     7    34    1
    17     8     9    1
    18     8    24   ar
    19     9    10    1
    20     9    35    1
    21     9    36    1
    22    10    11    1
    23    11    12    2
    24    11    13    1
    25    13    14    1
    26    13    37    1
    27    13    38    1
    28    14    15    1
    29    14    16    1
    30    14    17    1
    31    16    39    1
    32    16    40    1
    33    16    41    1
    34    17    22    1
    35    17    18    2
    36    18    19    1
    37    18    20    1
    38    19    42    1
    39    19    43    1
    40    19    44    1
    41    20    21    1
    42    21    22    2
    43    22    23    1
    44    23    45    1
    45    23    46    1
    46    23    47    1
    47    24    25   ar
    48    24    48    1
    49    25    26   ar
    50    25    49    1
@<TRIPOS>SUBSTRUCTURE
     1 ZINC000772422035        1 TEMP              0 ****  ****    0 ROOT


##########                                Name:    ZINC001289410668
##########                DOCK_Rotatable_Bonds:                  11
##########                         Heavy_Atoms:                  26
##########                    Molecular_Weight:             362.515
##########                DOCK_Rotatable_Bonds:                  11
##########                       Formal_Charge:          -0.0400008
##########                     HBond_Acceptors:                   6
##########                        HBond_Donors:                   1
##########                         Heavy_Atoms:                  26
##########                          Grid_Score:          -34.155949
##########                     Grid_vdw_energy:          -33.904922
##########                      Grid_es_energy:           -0.251025
##########           Internal_energy_repulsive:           15.611613

@<TRIPOS>MOLECULE
ZINC001289410668
 60 61 1 0 0
SMALL
USER_CHARGES


@<TRIPOS>ATOM
      1 C1          2.1010   -0.2541   47.7114 C.3     1  ZINC001289410668   -0.1500
      2 C2          0.8309   -0.8196   48.3505 C.3     1  ZINC001289410668   -0.1300
      3 C3         -0.3729   -0.4996   47.4620 C.3     1  ZINC001289410668   -0.1200
      4 C4         -0.7460    0.9758   47.6207 C.3     1  ZINC001289410668   -0.1200
      5 C5         -1.4555    1.1811   48.9605 C.3     1  ZINC001289410668   -0.1100
      6 C6         -2.2230    2.5044   48.9338 C.3     1  ZINC001289410668   -0.1400
      7 C7         -3.1923    2.5464   50.0869 C.2     1  ZINC001289410668    0.5100
      8 O8         -2.7931    2.7892   51.2061 O.2     1  ZINC001289410668   -0.5300
      9 N9         -4.5028    2.3140   49.8745 N.am    1  ZINC001289410668   -0.7200
     10 C10        -5.4448    2.3531   50.9957 C.3     1  ZINC001289410668    0.1400
     11 H11        -4.9187    2.2834   51.9479 H       1  ZINC001289410668    0.1100
     12 C12        -6.5088    1.2347   50.8662 C.3     1  ZINC001289410668    0.0800
     13 N13        -7.6714    1.7301   51.6254 N.am    1  ZINC001289410668   -0.6200
     14 C14        -8.6328    0.9642   52.1783 C.2     1  ZINC001289410668    0.5100
     15 O15        -8.5845   -0.2427   52.0688 O.2     1  ZINC001289410668   -0.5100
     16 C16        -9.7678    1.6076   52.9326 C.3     1  ZINC001289410668    0.0900
     17 N17       -10.9618    0.7650   52.8301 N.pl3   1  ZINC001289410668   -0.4500
     18 C18       -11.7590    0.6167   51.7272 C.2     1  ZINC001289410668   -0.0500
     19 C19       -12.7374   -0.2443   52.0667 C.2     1  ZINC001289410668   -0.0200
     20 N20       -12.5428   -0.6115   53.3420 N.2     1  ZINC001289410668   -0.4800
     21 C21       -11.4783   -0.0149   53.8041 C.2     1  ZINC001289410668    0.2300
     22 C22       -10.9226   -0.1641   55.1970 C.3     1  ZINC001289410668   -0.0100
     23 C23       -11.8525    0.5302   56.1941 C.3     1  ZINC001289410668   -0.1400
     24 C24       -10.8169   -1.6496   55.5474 C.3     1  ZINC001289410668   -0.1400
     25 C25        -7.6079    3.1980   51.6803 C.3     1  ZINC001289410668    0.1100
     26 C26        -6.3247    3.6297   50.9386 C.3     1  ZINC001289410668   -0.1100
     27 H27        -6.5479    3.8976   49.9058 H       1  ZINC001289410668    0.0900
     28 C28        -5.6464    4.7940   51.6632 C.3     1  ZINC001289410668   -0.1400
     29 H29         2.9586   -0.4820   48.3444 H       1  ZINC001289410668    0.0500
     30 H30         2.2446   -0.7040   46.7291 H       1  ZINC001289410668    0.0500
     31 H31         2.0044    0.8264   47.6056 H       1  ZINC001289410668    0.0500
     32 H32         0.9275   -1.9001   48.4563 H       1  ZINC001289410668    0.0600
     33 H33         0.6873   -0.3697   49.3329 H       1  ZINC001289410668    0.0600
     34 H34        -0.1197   -0.7003   46.4209 H       1  ZINC001289410668    0.0600
     35 H35        -1.2178   -1.1218   47.7570 H       1  ZINC001289410668    0.0600
     36 H36         0.1578    1.5843   47.5912 H       1  ZINC001289410668    0.0600
     37 H37        -1.4101    1.2720   46.8087 H       1  ZINC001289410668    0.0600
     38 H38        -2.1521    0.3605   49.1323 H       1  ZINC001289410668    0.0700
     39 H39        -0.7177    1.2052   49.7625 H       1  ZINC001289410668    0.0700
     40 H40        -1.5206    3.3335   49.0191 H       1  ZINC001289410668    0.1000
     41 H41        -2.7710    2.5877   47.9952 H       1  ZINC001289410668    0.1000
     42 H42        -4.8222    2.1210   48.9792 H       1  ZINC001289410668    0.4000
     43 H43        -6.7753    1.0840   49.8200 H       1  ZINC001289410668    0.0800
     44 H44        -6.1387    0.3066   51.3018 H       1  ZINC001289410668    0.0800
     45 H45        -9.4904    1.7188   53.9809 H       1  ZINC001289410668    0.1200
     46 H46        -9.9775    2.5885   52.5061 H       1  ZINC001289410668    0.1200
     47 H47       -11.6286    1.0979   50.7692 H       1  ZINC001289410668    0.1700
     48 H48       -13.5382   -0.5800   51.4246 H       1  ZINC001289410668    0.1700
     49 H49        -9.9337    0.2917   55.2444 H       1  ZINC001289410668    0.0700
     50 H50       -12.8415    0.0744   56.1466 H       1  ZINC001289410668    0.0700
     51 H51       -11.4507    0.4223   57.2015 H       1  ZINC001289410668    0.0600
     52 H52       -11.9278    1.5885   55.9444 H       1  ZINC001289410668    0.0500
     53 H53       -11.8059   -2.1055   55.5000 H       1  ZINC001289410668    0.0700
     54 H54       -10.1544   -2.1443   54.8371 H       1  ZINC001289410668    0.0600
     55 H55       -10.4150   -1.7577   56.5548 H       1  ZINC001289410668    0.0600
     56 H56        -8.4821    3.6254   51.1892 H       1  ZINC001289410668    0.0800
     57 H57        -7.5645    3.5286   52.7180 H       1  ZINC001289410668    0.0800
     58 H58        -5.4050    4.4958   52.6835 H       1  ZINC001289410668    0.0600
     59 H59        -4.7307    5.0650   51.1377 H       1  ZINC001289410668    0.0600
     60 H60        -6.3201    5.6506   51.6847 H       1  ZINC001289410668    0.0700
@<TRIPOS>BOND
     1     1     2    1
     2     1    29    1
     3     1    30    1
     4     1    31    1
     5     2     3    1
     6     2    32    1
     7     2    33    1
     8     3     4    1
     9     3    34    1
    10     3    35    1
    11     4     5    1
    12     4    36    1
    13     4    37    1
    14     5     6    1
    15     5    38    1
    16     5    39    1
    17     6     7    1
    18     6    40    1
    19     6    41    1
    20     7     8    2
    21     7     9   am
    22     9    10    1
    23     9    42    1
    24    10    11    1
    25    10    26    1
    26    10    12    1
    27    12    13    1
    28    12    43    1
    29    12    44    1
    30    13    14   am
    31    13    25    1
    32    14    15    2
    33    14    16    1
    34    16    17    1
    35    16    45    1
    36    16    46    1
    37    17    21    1
    38    17    18    1
    39    18    19    2
    40    18    47    1
    41    19    20    1
    42    19    48    1
    43    20    21    2
    44    21    22    1
    45    22    23    1
    46    22    24    1
    47    22    49    1
    48    23    50    1
    49    23    51    1
    50    23    52    1
    51    24    53    1
    52    24    54    1
    53    24    55    1
    54    25    26    1
    55    25    56    1
    56    25    57    1
    57    26    27    1
    58    26    28    1
    59    28    58    1
    60    28    59    1
    61    28    60    1
@<TRIPOS>SUBSTRUCTURE
     1 ZINC001289410668        1 TEMP              0 ****  ****    0 ROOT


##########                                Name:    ZINC000912668252
##########                DOCK_Rotatable_Bonds:                  10
##########                         Heavy_Atoms:                  30
##########                    Molecular_Weight:             411.433
##########                DOCK_Rotatable_Bonds:                  10
##########                       Formal_Charge:           0.0199993
##########                     HBond_Acceptors:                   8
##########                        HBond_Donors:                   2
##########                         Heavy_Atoms:                  30
##########                          Grid_Score:          -34.129433
##########                     Grid_vdw_energy:          -33.061172
##########                      Grid_es_energy:           -1.068262
##########           Internal_energy_repulsive:           11.359255

@<TRIPOS>MOLECULE
ZINC000912668252
 52 54 1 0 0
SMALL
USER_CHARGES


@<TRIPOS>ATOM
      1 C1        -12.9504    0.5482   50.3928 C.3     1  ZINC000912668252   -0.1700
      2 C2        -13.1591    0.5657   51.9084 C.3     1  ZINC000912668252    0.1100
      3 N3        -11.8711    0.7683   52.5763 N.am    1  ZINC000912668252   -0.6100
      4 C4        -11.0131   -0.3804   52.8770 C.3     1  ZINC000912668252    0.1000
      5 C5        -10.0077   -0.5773   51.7407 C.3     1  ZINC000912668252   -0.1800
      6 C6        -11.4754    2.0116   52.9143 C.2     1  ZINC000912668252    0.5600
      7 O7        -12.1872    2.9648   52.6647 O.2     1  ZINC000912668252   -0.5300
      8 C8        -10.1754    2.2161   53.5884 C.ar    1  ZINC000912668252   -0.1100
      9 C9        -10.0696    2.0508   54.9704 C.ar    1  ZINC000912668252   -0.1100
     10 C10        -8.8549    2.2418   55.5971 C.ar    1  ZINC000912668252   -0.1000
     11 C11        -7.7403    2.5967   54.8608 C.ar    1  ZINC000912668252   -0.1200
     12 C12        -7.8353    2.7637   53.4842 C.ar    1  ZINC000912668252    0.1400
     13 N13        -6.7035    3.1228   52.7432 N.am    1  ZINC000912668252   -0.6700
     14 C14        -5.8131    2.1808   52.3740 C.2     1  ZINC000912668252    0.5200
     15 O15        -5.9925    1.0220   52.6839 O.2     1  ZINC000912668252   -0.4900
     16 C16        -4.5945    2.5675   51.5760 C.3     1  ZINC000912668252    0.0500
     17 O17        -4.3502    1.5685   50.5510 O.3     1  ZINC000912668252   -0.3300
     18 C18        -3.9004    2.0114   49.3594 C.2     1  ZINC000912668252    0.5400
     19 O19        -4.5157    2.8708   48.7587 O.2     1  ZINC000912668252   -0.4800
     20 C20        -2.6670    1.4555   48.7873 C.2     1  ZINC000912668252    0.0400
     21 C21        -2.0330    1.9208   47.6783 C.2     1  ZINC000912668252   -0.0900
     22 C22        -0.8896    1.1142   47.4649 C.ar    1  ZINC000912668252   -0.1000
     23 C23         0.1226    1.1178   46.4961 C.ar    1  ZINC000912668252   -0.0900
     24 C24         1.1217    0.1873   46.5540 C.ar    1  ZINC000912668252    0.0700
     25 F25         2.0967    0.1926   45.6188 F       1  ZINC000912668252   -0.1400
     26 C26         1.1435   -0.7649   47.5676 C.ar    1  ZINC000912668252   -0.1100
     27 C27         0.1590   -0.7878   48.5301 C.ar    1  ZINC000912668252   -0.1000
     28 C28        -0.8689    0.1500   48.4918 C.ar    1  ZINC000912668252    0.1100
     29 N29        -1.9626    0.3800   49.2937 N.pl3   1  ZINC000912668252   -0.5600
     30 C30        -9.0493    2.5691   52.8447 C.ar    1  ZINC000912668252   -0.0700
     31 H31       -13.9088    0.3975   49.8958 H       1  ZINC000912668252    0.0700
     32 H32       -12.5213    1.4981   50.0742 H       1  ZINC000912668252    0.0600
     33 H33       -12.2726   -0.2635   50.1287 H       1  ZINC000912668252    0.0600
     34 H34       -13.8369    1.3775   52.1725 H       1  ZINC000912668252    0.0800
     35 H35       -13.5883   -0.3842   52.2271 H       1  ZINC000912668252    0.0900
     36 H36       -10.4775   -0.1998   53.8089 H       1  ZINC000912668252    0.0900
     37 H37       -11.6268   -1.2756   52.9783 H       1  ZINC000912668252    0.0800
     38 H38       -10.4837   -1.1209   50.9246 H       1  ZINC000912668252    0.0600
     39 H39        -9.6702    0.3949   51.3816 H       1  ZINC000912668252    0.0700
     40 H40        -9.1529   -1.1463   52.1064 H       1  ZINC000912668252    0.0700
     41 H41       -10.9383    1.7738   55.5492 H       1  ZINC000912668252    0.1400
     42 H42        -8.7751    2.1139   56.6665 H       1  ZINC000912668252    0.1400
     43 H43        -6.7925    2.7452   55.3568 H       1  ZINC000912668252    0.1300
     44 H44        -6.5601    4.0496   52.4953 H       1  ZINC000912668252    0.4200
     45 H45        -4.7604    3.5370   51.1063 H       1  ZINC000912668252    0.1100
     46 H46        -3.7307    2.6275   52.2381 H       1  ZINC000912668252    0.1100
     47 H47        -2.3459    2.7558   47.0690 H       1  ZINC000912668252    0.1700
     48 H48         0.1131    1.8537   45.7057 H       1  ZINC000912668252    0.1400
     49 H49         1.9400   -1.4935   47.5998 H       1  ZINC000912668252    0.1400
     50 H50         0.1843   -1.5315   49.3127 H       1  ZINC000912668252    0.1400
     51 H51        -2.2011   -0.1300   50.0836 H       1  ZINC000912668252    0.4300
     52 H52        -9.1251    2.6984   51.7751 H       1  ZINC000912668252    0.1400
@<TRIPOS>BOND
     1     1     2    1
     2     1    31    1
     3     1    32    1
     4     1    33    1
     5     2     3    1
     6     2    34    1
     7     2    35    1
     8     3     4    1
     9     3     6   am
    10     4     5    1
    11     4    36    1
    12     4    37    1
    13     5    38    1
    14     5    39    1
    15     5    40    1
    16     6     7    2
    17     6     8    1
    18     8    30   ar
    19     8     9   ar
    20     9    10   ar
    21     9    41    1
    22    10    11   ar
    23    10    42    1
    24    11    12   ar
    25    11    43    1
    26    12    13    1
    27    12    30   ar
    28    13    14   am
    29    13    44    1
    30    14    15    2
    31    14    16    1
    32    16    17    1
    33    16    45    1
    34    16    46    1
    35    17    18    1
    36    18    19    2
    37    18    20    1
    38    20    29    1
    39    20    21    2
    40    21    22    1
    41    21    47    1
    42    22    28   ar
    43    22    23   ar
    44    23    24   ar
    45    23    48    1
    46    24    25    1
    47    24    26   ar
    48    26    27   ar
    49    26    49    1
    50    27    28   ar
    51    27    50    1
    52    28    29    1
    53    29    51    1
    54    30    52    1
@<TRIPOS>SUBSTRUCTURE
     1 ZINC000912668252        1 TEMP              0 ****  ****    0 ROOT


##########                                Name:    ZINC000373715094
##########                DOCK_Rotatable_Bonds:                   6
##########                         Heavy_Atoms:                  27
##########                    Molecular_Weight:             362.431
##########                DOCK_Rotatable_Bonds:                   6
##########                       Formal_Charge:           0.0299999
##########                     HBond_Acceptors:                   6
##########                        HBond_Donors:                   2
##########                         Heavy_Atoms:                  27
##########                          Grid_Score:          -34.121193
##########                     Grid_vdw_energy:          -33.613914
##########                      Grid_es_energy:           -0.507279
##########           Internal_energy_repulsive:           13.852547

@<TRIPOS>MOLECULE
ZINC000373715094
 49 52 1 0 0
SMALL
USER_CHARGES


@<TRIPOS>ATOM
      1 C1         -9.1950    2.7097   52.3160 C.3     1  ZINC000373715094    0.0900
      2 N2         -7.7676    2.3875   52.3873 N.am    1  ZINC000373715094   -0.6100
      3 C3         -7.2392    1.2023   52.0368 C.2     1  ZINC000373715094    0.5200
      4 O4         -7.8730    0.2534   51.6261 O.2     1  ZINC000373715094   -0.5200
      5 C5         -5.7387    1.2244   52.2287 C.3     1  ZINC000373715094   -0.1600
      6 C6         -5.3941    2.7269   52.3499 C.3     1  ZINC000373715094   -0.1000
      7 H7         -4.5996    2.8873   53.0786 H       1  ZINC000373715094    0.1100
      8 C8         -5.0116    3.3126   50.9892 C.3     1  ZINC000373715094    0.1300
      9 N9         -3.5624    3.2070   50.8021 N.am    1  ZINC000373715094   -0.7300
     10 C10        -3.0599    2.3230   49.9174 C.2     1  ZINC000373715094    0.5200
     11 O11        -3.8074    1.6160   49.2754 O.2     1  ZINC000373715094   -0.5200
     12 C12        -1.5691    2.2131   49.7263 C.3     1  ZINC000373715094   -0.0600
     13 C13        -1.2486    0.9296   49.0045 C.2     1  ZINC000373715094    0.1200
     14 N14        -1.0911   -0.2410   49.5534 N.2     1  ZINC000373715094   -0.2300
     15 N15        -0.8030   -1.1964   48.5734 N.pl3   1  ZINC000373715094   -0.5100
     16 C16        -0.7798   -0.5867   47.3463 C.ar    1  ZINC000373715094    0.1300
     17 C17        -0.5508   -1.0378   46.0491 C.ar    1  ZINC000373715094   -0.1400
     18 C18        -0.5989   -0.1581   45.0047 C.ar    1  ZINC000373715094   -0.0700
     19 C19        -0.8736    1.1867   45.2191 C.ar    1  ZINC000373715094   -0.1600
     20 C20        -1.1022    1.6574   46.4798 C.ar    1  ZINC000373715094   -0.0400
     21 C21        -1.0653    0.7752   47.5650 C.ar    1  ZINC000373715094   -0.1600
     22 C22        -6.7302    3.3194   52.8448 C.3     1  ZINC000373715094    0.1800
     23 H23        -6.8875    4.3077   52.4129 H       1  ZINC000373715094    0.1000
     24 C24        -6.7388    3.4012   54.3496 C.ar    1  ZINC000373715094   -0.1000
     25 C25        -5.8417    4.2258   55.0021 C.ar    1  ZINC000373715094   -0.1000
     26 C26        -5.8497    4.3007   56.3824 C.ar    1  ZINC000373715094   -0.1200
     27 C27        -6.7552    3.5514   57.1101 C.ar    1  ZINC000373715094   -0.1100
     28 C28        -7.6530    2.7276   56.4574 C.ar    1  ZINC000373715094   -0.1200
     29 C29        -7.6479    2.6558   55.0770 C.ar    1  ZINC000373715094   -0.1100
     30 H30        -9.4252    3.1247   51.3347 H       1  ZINC000373715094    0.0600
     31 H31        -9.7803    1.8038   52.4737 H       1  ZINC000373715094    0.0800
     32 H32        -9.4415    3.4403   53.0864 H       1  ZINC000373715094    0.0700
     33 H33        -5.4629    0.6950   53.1406 H       1  ZINC000373715094    0.1100
     34 H34        -5.2373    0.7865   51.3656 H       1  ZINC000373715094    0.1100
     35 H35        -5.5211    2.7601   50.1997 H       1  ZINC000373715094    0.0700
     36 H36        -5.3078    4.3607   50.9485 H       1  ZINC000373715094    0.0800
     37 H37        -2.9646    3.7733   51.3147 H       1  ZINC000373715094    0.4000
     38 H38        -1.2149    3.0592   49.1375 H       1  ZINC000373715094    0.1200
     39 H39        -1.0769    2.2157   50.6988 H       1  ZINC000373715094    0.1200
     40 H40        -0.6447   -2.1395   48.7363 H       1  ZINC000373715094    0.4400
     41 H41        -0.3355   -2.0807   45.8688 H       1  ZINC000373715094    0.1300
     42 H42        -0.4207   -0.5126   44.0002 H       1  ZINC000373715094    0.1300
     43 H43        -0.9064    1.8663   44.3803 H       1  ZINC000373715094    0.1300
     44 H44        -1.3152    2.7043   46.6382 H       1  ZINC000373715094    0.1300
     45 H45        -5.1342    4.8111   54.4337 H       1  ZINC000373715094    0.1200
     46 H46        -5.1482    4.9444   56.8923 H       1  ZINC000373715094    0.1200
     47 H47        -6.7609    3.6095   58.1886 H       1  ZINC000373715094    0.1200
     48 H48        -8.3602    2.1419   57.0260 H       1  ZINC000373715094    0.1300
     49 H49        -8.3493    2.0122   54.5671 H       1  ZINC000373715094    0.1300
@<TRIPOS>BOND
     1     1     2    1
     2     1    30    1
     3     1    31    1
     4     1    32    1
     5     2    22    1
     6     2     3   am
     7     3     4    2
     8     3     5    1
     9     5     6    1
    10     5    33    1
    11     5    34    1
    12     6     7    1
    13     6     8    1
    14     6    22    1
    15     8     9    1
    16     8    35    1
    17     8    36    1
    18     9    10   am
    19     9    37    1
    20    10    11    2
    21    10    12    1
    22    12    13    1
    23    12    38    1
    24    12    39    1
    25    13    21    1
    26    13    14    2
    27    14    15    1
    28    15    16    1
    29    15    40    1
    30    16    21   ar
    31    16    17   ar
    32    17    18   ar
    33    17    41    1
    34    18    19   ar
    35    18    42    1
    36    19    20   ar
    37    19    43    1
    38    20    21   ar
    39    20    44    1
    40    22    23    1
    41    22    24    1
    42    24    29   ar
    43    24    25   ar
    44    25    26   ar
    45    25    45    1
    46    26    27   ar
    47    26    46    1
    48    27    28   ar
    49    27    47    1
    50    28    29   ar
    51    28    48    1
    52    29    49    1
@<TRIPOS>SUBSTRUCTURE
     1 ZINC000373715094        1 TEMP              0 ****  ****    0 ROOT


##########                                Name:    ZINC000541568816
##########                DOCK_Rotatable_Bonds:                   8
##########                         Heavy_Atoms:                  25
##########                    Molecular_Weight:             411.339
##########                DOCK_Rotatable_Bonds:                   8
##########                       Formal_Charge:          -0.0100007
##########                     HBond_Acceptors:                   5
##########                        HBond_Donors:                   1
##########                         Heavy_Atoms:                  25
##########                          Grid_Score:          -34.081608
##########                     Grid_vdw_energy:          -32.684704
##########                      Grid_es_energy:           -1.396903
##########           Internal_energy_repulsive:           21.657217

@<TRIPOS>MOLECULE
ZINC000541568816
 52 54 1 0 0
SMALL
USER_CHARGES


@<TRIPOS>ATOM
      1 C1          0.1888    2.8678   44.3101 C.3     1  ZINC000541568816   -0.1500
      2 C2         -0.7129    2.9645   45.5424 C.3     1  ZINC000541568816    0.0600
      3 O3         -0.3222    1.9758   46.4973 O.3     1  ZINC000541568816   -0.3700
      4 C4         -1.2150    1.8544   47.6064 C.3     1  ZINC000541568816    0.0700
      5 H5         -2.2534    1.7237   47.3021 H       1  ZINC000541568816    0.0900
      6 C6         -1.0182    2.9404   48.6789 C.3     1  ZINC000541568816   -0.1700
      7 C7         -1.2292    1.8350   49.7284 C.3     1  ZINC000541568816    0.1500
      8 H8         -0.5596    1.9119   50.5850 H       1  ZINC000541568816    0.1100
      9 N9         -2.6303    1.6520   50.1154 N.am    1  ZINC000541568816   -0.7200
     10 C10        -3.1679    2.4207   51.0832 C.2     1  ZINC000541568816    0.7100
     11 O11        -2.4905    3.2669   51.6340 O.2     1  ZINC000541568816   -0.5800
     12 N12        -4.4564    2.2513   51.4404 N.am    1  ZINC000541568816   -0.6300
     13 C13        -5.2731    1.2329   50.7755 C.3     1  ZINC000541568816    0.1000
     14 C14        -6.1679    0.5432   51.8073 C.3     1  ZINC000541568816   -0.1800
     15 C15        -5.0403    3.0857   52.4936 C.3     1  ZINC000541568816    0.1700
     16 C16        -6.2497    3.8038   51.9529 C.ar    1  ZINC000541568816   -0.0700
     17 C17        -6.2807    4.2069   50.6314 C.ar    1  ZINC000541568816   -0.1000
     18 C18        -7.3904    4.8657   50.1352 C.ar    1  ZINC000541568816   -0.1000
     19 C19        -8.4694    5.1212   50.9605 C.ar    1  ZINC000541568816   -0.1200
     20 C20        -8.4393    4.7184   52.2825 C.ar    1  ZINC000541568816   -0.0900
     21 C21        -7.3316    4.0547   52.7779 C.ar    1  ZINC000541568816   -0.0900
     22 Br22       -7.2898    3.5034   54.5863 Br      1  ZINC000541568816   -0.0500
     23 C23        -0.7517    0.8433   48.6600 C.3     1  ZINC000541568816    0.0800
     24 C24         0.7632    0.5747   48.6668 C.3     1  ZINC000541568816   -0.1200
     25 C25         0.8319   -0.8837   49.1998 C.3     1  ZINC000541568816   -0.1600
     26 C26        -0.4661   -1.4803   48.5982 C.3     1  ZINC000541568816    0.0500
     27 O27        -1.4282   -0.4122   48.6453 O.3     1  ZINC000541568816   -0.3600
     28 H28         1.2249    3.0359   44.6039 H       1  ZINC000541568816    0.0600
     29 H29         0.0932    1.8766   43.8668 H       1  ZINC000541568816    0.0600
     30 H30        -0.1091    3.6219   43.5817 H       1  ZINC000541568816    0.0700
     31 H31        -0.6172    3.9557   45.9856 H       1  ZINC000541568816    0.0500
     32 H32        -1.7490    2.7964   45.2485 H       1  ZINC000541568816    0.0500
     33 H33        -0.0149    3.3664   48.6895 H       1  ZINC000541568816    0.1000
     34 H34        -1.8010    3.6989   48.6806 H       1  ZINC000541568816    0.0800
     35 H35        -3.1710    0.9777   49.6752 H       1  ZINC000541568816    0.4000
     36 H36        -5.8938    1.7052   50.0142 H       1  ZINC000541568816    0.0900
     37 H37        -4.6225    0.4943   50.3073 H       1  ZINC000541568816    0.0700
     38 H38        -6.8184    1.2818   52.2757 H       1  ZINC000541568816    0.0600
     39 H39        -6.7755   -0.2145   51.3127 H       1  ZINC000541568816    0.0700
     40 H40        -5.5472    0.0710   52.5688 H       1  ZINC000541568816    0.0600
     41 H41        -5.3363    2.4567   53.3331 H       1  ZINC000541568816    0.1000
     42 H42        -4.3038    3.8160   52.8288 H       1  ZINC000541568816    0.1100
     43 H43        -5.4379    4.0075   49.9862 H       1  ZINC000541568816    0.1300
     44 H44        -7.4140    5.1813   49.1025 H       1  ZINC000541568816    0.1300
     45 H45        -9.3359    5.6359   50.5725 H       1  ZINC000541568816    0.1300
     46 H46        -9.2823    4.9184   52.9274 H       1  ZINC000541568816    0.1300
     47 H47         1.1745    0.6407   47.6596 H       1  ZINC000541568816    0.1000
     48 H48         1.2768    1.2600   49.3411 H       1  ZINC000541568816    0.0900
     49 H49         1.7138   -1.3994   48.8200 H       1  ZINC000541568816    0.0900
     50 H50         0.8055   -0.9052   50.2892 H       1  ZINC000541568816    0.0800
     51 H51        -0.2968   -1.7916   47.5674 H       1  ZINC000541568816    0.0600
     52 H52        -0.8079   -2.3240   49.1977 H       1  ZINC000541568816    0.0900
@<TRIPOS>BOND
     1     1     2    1
     2     1    28    1
     3     1    29    1
     4     1    30    1
     5     2     3    1
     6     2    31    1
     7     2    32    1
     8     3     4    1
     9     4     5    1
    10     4    23    1
    11     4     6    1
    12     6     7    1
    13     6    33    1
    14     6    34    1
    15     7     8    1
    16     7     9    1
    17     7    23    1
    18     9    10   am
    19     9    35    1
    20    10    11    2
    21    10    12   am
    22    12    13    1
    23    12    15    1
    24    13    14    1
    25    13    36    1
    26    13    37    1
    27    14    38    1
    28    14    39    1
    29    14    40    1
    30    15    16    1
    31    15    41    1
    32    15    42    1
    33    16    21   ar
    34    16    17   ar
    35    17    18   ar
    36    17    43    1
    37    18    19   ar
    38    18    44    1
    39    19    20   ar
    40    19    45    1
    41    20    21   ar
    42    20    46    1
    43    21    22    1
    44    23    27    1
    45    23    24    1
    46    24    25    1
    47    24    47    1
    48    24    48    1
    49    25    26    1
    50    25    49    1
    51    25    50    1
    52    26    27    1
    53    26    51    1
    54    26    52    1
@<TRIPOS>SUBSTRUCTURE
     1 ZINC000541568816        1 TEMP              0 ****  ****    0 ROOT


##########                                Name:    ZINC000523878927
##########                DOCK_Rotatable_Bonds:                   8
##########                         Heavy_Atoms:                  27
##########                    Molecular_Weight:             376.474
##########                DOCK_Rotatable_Bonds:                   8
##########                       Formal_Charge:          0.00999957
##########                     HBond_Acceptors:                   7
##########                        HBond_Donors:                   3
##########                         Heavy_Atoms:                  27
##########                          Grid_Score:          -34.078915
##########                     Grid_vdw_energy:          -33.164635
##########                      Grid_es_energy:           -0.914281
##########           Internal_energy_repulsive:           11.831075

@<TRIPOS>MOLECULE
ZINC000523878927
 56 58 1 0 0
SMALL
USER_CHARGES


@<TRIPOS>ATOM
      1 C1        -14.8858    0.4532   52.6972 C.3     1  ZINC000523878927   -0.1500
      2 C2        -13.7942    1.5024   52.4773 C.3     1  ZINC000523878927   -0.0900
      3 H3        -14.1506    2.4745   52.8179 H       1  ZINC000523878927    0.0700
      4 C4        -13.4522    1.5780   50.9878 C.3     1  ZINC000523878927   -0.1200
      5 C5        -12.9519    0.2135   50.5096 C.3     1  ZINC000523878927   -0.1200
      6 C6        -11.7019   -0.1775   51.3008 C.3     1  ZINC000523878927   -0.1100
      7 C7        -12.0440   -0.2530   52.7901 C.3     1  ZINC000523878927   -0.1000
      8 H8        -12.8216   -1.0004   52.9469 H       1  ZINC000523878927    0.0800
      9 C9        -10.7940   -0.6437   53.5812 C.3     1  ZINC000523878927    0.1400
     10 N10        -9.7470    0.3583   53.3664 N.am    1  ZINC000523878927   -0.7400
     11 C11        -8.7717    0.1311   52.4645 C.2     1  ZINC000523878927    0.7200
     12 O12        -8.7600   -0.9060   51.8300 O.2     1  ZINC000523878927   -0.5800
     13 N13        -7.8095    1.0536   52.2658 N.am    1  ZINC000523878927   -0.6400
     14 C14        -7.7032    2.3483   52.9630 C.3     1  ZINC000523878927    0.1000
     15 C15        -6.2030    2.7241   52.8751 C.3     1  ZINC000523878927   -0.1400
     16 C16        -5.8363    2.2124   51.4569 C.3     1  ZINC000523878927    0.1500
     17 H17        -6.1125    2.9454   50.6991 H       1  ZINC000523878927    0.1100
     18 N18        -4.4082    1.8961   51.3732 N.am    1  ZINC000523878927   -0.7300
     19 C19        -3.7825    1.9156   50.1796 C.2     1  ZINC000523878927    0.7100
     20 O20        -4.4029    2.1972   49.1725 O.2     1  ZINC000523878927   -0.5700
     21 N21        -2.4692    1.6231   50.1024 N.am    1  ZINC000523878927   -0.6800
     22 C22        -1.8190    1.6433   48.8620 C.ar    1  ZINC000523878927    0.1500
     23 C23        -1.4904    0.4515   48.2300 C.ar    1  ZINC000523878927   -0.1200
     24 C24        -0.8497    0.4736   47.0066 C.ar    1  ZINC000523878927   -0.1300
     25 C25        -0.5346    1.6831   46.4108 C.ar    1  ZINC000523878927    0.0800
     26 F26         0.0925    1.7026   45.2143 F       1  ZINC000523878927   -0.1400
     27 C27        -0.8618    2.8727   47.0393 C.ar    1  ZINC000523878927   -0.1300
     28 C28        -1.5073    2.8550   48.2603 C.ar    1  ZINC000523878927   -0.0900
     29 C29        -6.6883    0.9328   51.3225 C.3     1  ZINC000523878927    0.1200
     30 C30       -12.5443    1.1116   53.2684 C.3     1  ZINC000523878927   -0.1100
     31 H31       -15.1295    0.3994   53.7583 H       1  ZINC000523878927    0.0500
     32 H32       -15.7762    0.7316   52.1336 H       1  ZINC000523878927    0.0500
     33 H33       -14.5294   -0.5189   52.3566 H       1  ZINC000523878927    0.0600
     34 H34       -14.3426    1.8563   50.4243 H       1  ZINC000523878927    0.0600
     35 H35       -12.6744    2.3254   50.8312 H       1  ZINC000523878927    0.0600
     36 H36       -13.7295   -0.5340   50.6664 H       1  ZINC000523878927    0.0700
     37 H37       -12.7082    0.2673   49.4486 H       1  ZINC000523878927    0.0600
     38 H38       -11.3455   -1.1496   50.9600 H       1  ZINC000523878927    0.0600
     39 H39       -10.9242    0.5701   51.1440 H       1  ZINC000523878927    0.0600
     40 H40       -11.0367   -0.6939   54.6426 H       1  ZINC000523878927    0.0700
     41 H41       -10.4397   -1.6176   53.2430 H       1  ZINC000523878927    0.0700
     42 H42        -9.7558    1.1851   53.8735 H       1  ZINC000523878927    0.3900
     43 H43        -8.3127    3.1002   52.4617 H       1  ZINC000523878927    0.0800
     44 H44        -8.0079    2.2445   54.0044 H       1  ZINC000523878927    0.0800
     45 H45        -6.0655    3.8029   52.9487 H       1  ZINC000523878927    0.1000
     46 H46        -5.6247    2.2050   53.6393 H       1  ZINC000523878927    0.0800
     47 H47        -3.9131    1.6727   52.1768 H       1  ZINC000523878927    0.4000
     48 H48        -1.9743    1.3986   50.9059 H       1  ZINC000523878927    0.4100
     49 H49        -1.7354   -0.4921   48.6949 H       1  ZINC000523878927    0.1400
     50 H50        -0.5939   -0.4532   46.5146 H       1  ZINC000523878927    0.1400
     51 H51        -0.6153    3.8152   46.5729 H       1  ZINC000523878927    0.1400
     52 H52        -1.7627    3.7830   48.7500 H       1  ZINC000523878927    0.1500
     53 H53        -6.0848    0.0584   51.5662 H       1  ZINC000523878927    0.0700
     54 H54        -7.0729    0.8487   50.3061 H       1  ZINC000523878927    0.0800
     55 H55       -11.7665    1.8590   53.1116 H       1  ZINC000523878927    0.0700
     56 H56       -12.7879    1.0578   54.3295 H       1  ZINC000523878927    0.0700
@<TRIPOS>BOND
     1     1     2    1
     2     1    31    1
     3     1    32    1
     4     1    33    1
     5     2     3    1
     6     2    30    1
     7     2     4    1
     8     4     5    1
     9     4    34    1
    10     4    35    1
    11     5     6    1
    12     5    36    1
    13     5    37    1
    14     6     7    1
    15     6    38    1
    16     6    39    1
    17     7     8    1
    18     7     9    1
    19     7    30    1
    20     9    10    1
    21     9    40    1
    22     9    41    1
    23    10    11   am
    24    10    42    1
    25    11    12    2
    26    11    13   am
    27    13    29    1
    28    13    14    1
    29    14    15    1
    30    14    43    1
    31    14    44    1
    32    15    16    1
    33    15    45    1
    34    15    46    1
    35    16    17    1
    36    16    18    1
    37    16    29    1
    38    18    19   am
    39    18    47    1
    40    19    20    2
    41    19    21   am
    42    21    22    1
    43    21    48    1
    44    22    28   ar
    45    22    23   ar
    46    23    24   ar
    47    23    49    1
    48    24    25   ar
    49    24    50    1
    50    25    26    1
    51    25    27   ar
    52    27    28   ar
    53    27    51    1
    54    28    52    1
    55    29    53    1
    56    29    54    1
    57    30    55    1
    58    30    56    1
@<TRIPOS>SUBSTRUCTURE
     1 ZINC000523878927        1 TEMP              0 ****  ****    0 ROOT


##########                                Name:    ZINC000471198073
##########                DOCK_Rotatable_Bonds:                  12
##########                         Heavy_Atoms:                  30
##########                    Molecular_Weight:             409.528
##########                DOCK_Rotatable_Bonds:                  12
##########                       Formal_Charge:          -0.0399998
##########                     HBond_Acceptors:                   6
##########                        HBond_Donors:                   3
##########                         Heavy_Atoms:                  30
##########                          Grid_Score:          -34.077717
##########                     Grid_vdw_energy:          -33.558453
##########                      Grid_es_energy:           -0.519264
##########           Internal_energy_repulsive:           27.219633

@<TRIPOS>MOLECULE
ZINC000471198073
 61 62 1 0 0
SMALL
USER_CHARGES


@<TRIPOS>ATOM
      1 C1         -0.5711    2.2288   46.8942 C.3     1  ZINC000471198073   -0.1400
      2 C2         -1.4495    1.0070   47.1713 C.3     1  ZINC000471198073   -0.1100
      3 C3         -0.5666   -0.2347   47.3111 C.3     1  ZINC000471198073   -0.1500
      4 C4         -2.2203    1.2216   48.4484 C.2     1  ZINC000471198073    0.5200
      5 O5         -2.3398    0.3143   49.2443 O.2     1  ZINC000471198073   -0.5200
      6 N6         -2.7766    2.4218   48.7061 N.am    1  ZINC000471198073   -0.6700
      7 C7         -3.4923    2.6211   49.8919 C.ar    1  ZINC000471198073    0.1600
      8 C8         -2.8953    3.2739   50.9629 C.ar    1  ZINC000471198073   -0.1500
      9 C9         -3.6013    3.4716   52.1343 C.ar    1  ZINC000471198073   -0.0800
     10 C10        -4.9023    3.0212   52.2445 C.ar    1  ZINC000471198073   -0.1300
     11 C11        -5.5054    2.3667   51.1767 C.ar    1  ZINC000471198073    0.1500
     12 N12        -6.8215    1.9108   51.2889 N.am    1  ZINC000471198073   -0.6400
     13 C13        -7.0684    0.6775   51.7731 C.2     1  ZINC000471198073    0.5100
     14 O14        -6.1477   -0.0371   52.1119 O.2     1  ZINC000471198073   -0.5000
     15 C15        -8.4751    0.1901   51.8929 C.2     1  ZINC000471198073    0.5100
     16 O16        -8.7562   -0.9413   51.5555 O.2     1  ZINC000471198073   -0.5100
     17 N17        -9.4324    1.0069   52.3757 N.am    1  ZINC000471198073   -0.7000
     18 C18       -10.8125    0.5295   52.4917 C.3     1  ZINC000471198073    0.1200
     19 C19       -11.6777    1.6196   53.1271 C.3     1  ZINC000471198073   -0.0900
     20 H20       -11.2523    2.5979   52.9028 H       1  ZINC000471198073    0.0800
     21 C21       -13.0970    1.5388   52.5615 C.3     1  ZINC000471198073   -0.0800
     22 C22       -13.0379    1.5296   51.0557 C.ar    1  ZINC000471198073   -0.0800
     23 C23       -13.2215    0.3469   50.3641 C.ar    1  ZINC000471198073   -0.1200
     24 C24       -13.1672    0.3384   48.9828 C.ar    1  ZINC000471198073   -0.1200
     25 C25       -12.9297    1.5127   48.2932 C.ar    1  ZINC000471198073   -0.1200
     26 C26       -12.7471    2.6956   48.9848 C.ar    1  ZINC000471198073   -0.1200
     27 C27       -12.8057    2.7048   50.3659 C.ar    1  ZINC000471198073   -0.1200
     28 C28       -11.7205    1.4177   54.6431 C.3     1  ZINC000471198073   -0.1000
     29 C29       -10.3345    1.6864   55.2327 C.3     1  ZINC000471198073   -0.1600
     30 C30       -12.7329    2.3860   55.2583 C.3     1  ZINC000471198073   -0.1700
     31 C31        -4.8008    2.1718   49.9971 C.ar    1  ZINC000471198073   -0.1400
     32 H32        -0.0137    2.0735   45.9706 H       1  ZINC000471198073    0.0700
     33 H33        -1.2002    3.1134   46.7946 H       1  ZINC000471198073    0.0600
     34 H34         0.1261    2.3697   47.7201 H       1  ZINC000471198073    0.0600
     35 H35        -2.1467    0.8660   46.3454 H       1  ZINC000471198073    0.1000
     36 H36         0.1306   -0.0937   48.1369 H       1  ZINC000471198073    0.0600
     37 H37        -1.1923   -1.1051   47.5085 H       1  ZINC000471198073    0.0600
     38 H38        -0.0091   -0.3899   46.3873 H       1  ZINC000471198073    0.0700
     39 H39        -2.6811    3.1474   48.0696 H       1  ZINC000471198073    0.4100
     40 H40        -1.8781    3.6271   50.8802 H       1  ZINC000471198073    0.1300
     41 H41        -3.1347    3.9792   52.9656 H       1  ZINC000471198073    0.1300
     42 H42        -5.4515    3.1771   53.1613 H       1  ZINC000471198073    0.1400
     43 H43        -7.5574    2.4819   51.0181 H       1  ZINC000471198073    0.4200
     44 H44        -9.2075    1.9107   52.6465 H       1  ZINC000471198073    0.4200
     45 H45       -11.1988    0.2907   51.5007 H       1  ZINC000471198073    0.0700
     46 H46       -10.8368   -0.3636   53.1160 H       1  ZINC000471198073    0.0800
     47 H47       -13.5762    0.6246   52.9119 H       1  ZINC000471198073    0.0800
     48 H48       -13.6716    2.4020   52.8974 H       1  ZINC000471198073    0.0800
     49 H49       -13.4069   -0.5706   50.9028 H       1  ZINC000471198073    0.1200
     50 H50       -13.3098   -0.5857   48.4425 H       1  ZINC000471198073    0.1200
     51 H51       -12.8866    1.5060   47.2141 H       1  ZINC000471198073    0.1200
     52 H52       -12.5613    3.6130   48.4461 H       1  ZINC000471198073    0.1200
     53 H53       -12.6629    3.6290   50.9063 H       1  ZINC000471198073    0.1200
     54 H54       -12.0171    0.3925   54.8648 H       1  ZINC000471198073    0.0800
     55 H55       -10.0795    2.7375   55.0973 H       1  ZINC000471198073    0.0600
     56 H56       -10.3397    1.4480   56.2963 H       1  ZINC000471198073    0.0600
     57 H57        -9.5968    1.0652   54.7247 H       1  ZINC000471198073    0.0600
     58 H58       -13.6909    2.2820   54.7490 H       1  ZINC000471198073    0.0600
     59 H59       -12.8574    2.1575   56.3167 H       1  ZINC000471198073    0.0600
     60 H60       -12.3715    3.4083   55.1473 H       1  ZINC000471198073    0.0700
     61 H61        -5.2670    1.6637   49.1659 H       1  ZINC000471198073    0.1400
@<TRIPOS>BOND
     1     1     2    1
     2     1    32    1
     3     1    33    1
     4     1    34    1
     5     2     3    1
     6     2     4    1
     7     2    35    1
     8     3    36    1
     9     3    37    1
    10     3    38    1
    11     4     5    2
    12     4     6   am
    13     6     7    1
    14     6    39    1
    15     7    31   ar
    16     7     8   ar
    17     8     9   ar
    18     8    40    1
    19     9    10   ar
    20     9    41    1
    21    10    11   ar
    22    10    42    1
    23    11    12    1
    24    11    31   ar
    25    12    13   am
    26    12    43    1
    27    13    14    2
    28    13    15    1
    29    15    16    2
    30    15    17   am
    31    17    18    1
    32    17    44    1
    33    18    19    1
    34    18    45    1
    35    18    46    1
    36    19    20    1
    37    19    21    1
    38    19    28    1
    39    21    22    1
    40    21    47    1
    41    21    48    1
    42    22    27   ar
    43    22    23   ar
    44    23    24   ar
    45    23    49    1
    46    24    25   ar
    47    24    50    1
    48    25    26   ar
    49    25    51    1
    50    26    27   ar
    51    26    52    1
    52    27    53    1
    53    28    29    1
    54    28    30    1
    55    28    54    1
    56    29    55    1
    57    29    56    1
    58    29    57    1
    59    30    58    1
    60    30    59    1
    61    30    60    1
    62    31    61    1
@<TRIPOS>SUBSTRUCTURE
     1 ZINC000471198073        1 TEMP              0 ****  ****    0 ROOT


##########                                Name:    ZINC000558213406
##########                DOCK_Rotatable_Bonds:                   8
##########                         Heavy_Atoms:                  30
##########                    Molecular_Weight:               408.5
##########                DOCK_Rotatable_Bonds:                   8
##########                       Formal_Charge:          -0.0299987
##########                     HBond_Acceptors:                   7
##########                        HBond_Donors:                   2
##########                         Heavy_Atoms:                  30
##########                          Grid_Score:          -34.020012
##########                     Grid_vdw_energy:          -33.784195
##########                      Grid_es_energy:           -0.235817
##########           Internal_energy_repulsive:           11.873467

@<TRIPOS>MOLECULE
ZINC000558213406
 58 61 1 0 0
SMALL
USER_CHARGES


@<TRIPOS>ATOM
      1 O1         -8.4309    2.1347   51.9816 O.2     1  ZINC000558213406   -0.5700
      2 C2         -7.8858    1.0582   51.8314 C.2     1  ZINC000558213406    0.7100
      3 N3         -8.5393   -0.0778   52.1457 N.am    1  ZINC000558213406   -0.6800
      4 C4         -9.8451   -0.0180   52.6510 C.ar    1  ZINC000558213406    0.1700
      5 C5        -10.0890    0.5909   53.8748 C.ar    1  ZINC000558213406   -0.1300
      6 C6        -11.3758    0.6500   54.3719 C.ar    1  ZINC000558213406   -0.1100
      7 C7        -12.4250    0.1007   53.6491 C.ar    1  ZINC000558213406    0.0600
      8 O8        -13.6918    0.1587   54.1393 O.3     1  ZINC000558213406   -0.2500
      9 C9        -14.0441   -0.7313   55.1039 C.ar    1  ZINC000558213406    0.0700
     10 C10       -13.1820   -1.7636   55.4603 C.ar    1  ZINC000558213406   -0.1500
     11 C11       -13.5853   -2.6463   56.4493 C.ar    1  ZINC000558213406   -0.1300
     12 C12       -14.8207   -2.4741   57.0448 C.ar    1  ZINC000558213406    0.0600
     13 N13       -15.6147   -1.4850   56.6834 N.ar    1  ZINC000558213406   -0.4500
     14 C14       -15.2664   -0.6203   55.7516 C.ar    1  ZINC000558213406    0.0800
     15 C15       -12.1819   -0.5074   52.4260 C.ar    1  ZINC000558213406   -0.1000
     16 C16       -10.8961   -0.5625   51.9254 C.ar    1  ZINC000558213406   -0.1100
     17 N17        -6.6300    1.0007   51.3455 N.am    1  ZINC000558213406   -0.7300
     18 C18        -5.9194    2.2356   51.0039 C.3     1  ZINC000558213406    0.1500
     19 H19        -6.5624    2.9024   50.4293 H       1  ZINC000558213406    0.1100
     20 C20        -5.4000    2.9420   52.2839 C.3     1  ZINC000558213406   -0.1400
     21 C21        -4.1892    3.7351   51.7318 C.3     1  ZINC000558213406    0.1000
     22 N22        -3.5889    2.8495   50.7174 N.am    1  ZINC000558213406   -0.6200
     23 C23        -2.3063    2.8837   50.3051 C.2     1  ZINC000558213406    0.5400
     24 O24        -1.5385    3.6945   50.7783 O.2     1  ZINC000558213406   -0.5300
     25 C25        -1.8261    1.9143   49.2558 C.3     1  ZINC000558213406   -0.1000
     26 C26        -2.0623    2.5088   47.8660 C.3     1  ZINC000558213406   -0.1100
     27 C27        -1.5748    1.5247   46.8008 C.3     1  ZINC000558213406   -0.1200
     28 C28        -0.0802    1.2614   46.9955 C.3     1  ZINC000558213406   -0.1200
     29 C29         0.1560    0.6670   48.3854 C.3     1  ZINC000558213406   -0.1200
     30 C30        -0.3316    1.6511   49.4506 C.3     1  ZINC000558213406   -0.1100
     31 C31        -4.6235    1.9227   50.2266 C.3     1  ZINC000558213406    0.1000
     32 H32        -8.1060   -0.9367   52.0221 H       1  ZINC000558213406    0.4100
     33 H33        -9.2723    1.0179   54.4378 H       1  ZINC000558213406    0.1300
     34 H34       -11.5656    1.1237   55.3239 H       1  ZINC000558213406    0.1400
     35 H35       -12.2222   -1.8743   54.9777 H       1  ZINC000558213406    0.1400
     36 H36       -12.9420   -3.4596   56.7512 H       1  ZINC000558213406    0.1400
     37 H37       -15.1404   -3.1590   57.8163 H       1  ZINC000558213406    0.1600
     38 H38       -15.9432    0.1771   55.4825 H       1  ZINC000558213406    0.1700
     39 H39       -12.9990   -0.9348   51.8637 H       1  ZINC000558213406    0.1400
     40 H40       -10.7071   -1.0356   50.9731 H       1  ZINC000558213406    0.1500
     41 H41        -6.1966    0.1418   51.2219 H       1  ZINC000558213406    0.4000
     42 H42        -6.1542    3.6147   52.6923 H       1  ZINC000558213406    0.0900
     43 H43        -5.0827    2.2141   53.0305 H       1  ZINC000558213406    0.0800
     44 H44        -4.5227    4.6659   51.2732 H       1  ZINC000558213406    0.0700
     45 H45        -3.4740    3.9387   52.5286 H       1  ZINC000558213406    0.0800
     46 H46        -2.3751    0.9773   49.3484 H       1  ZINC000558213406    0.0900
     47 H47        -3.1272    2.6964   47.7272 H       1  ZINC000558213406    0.0600
     48 H48        -1.5133    3.4459   47.7735 H       1  ZINC000558213406    0.0700
     49 H49        -2.1239    0.5877   46.8933 H       1  ZINC000558213406    0.0600
     50 H50        -1.7431    1.9482   45.8106 H       1  ZINC000558213406    0.0700
     51 H51         0.2670    0.5603   46.2366 H       1  ZINC000558213406    0.0600
     52 H52         0.4688    2.1985   46.9030 H       1  ZINC000558213406    0.0600
     53 H53        -0.3931   -0.2701   48.4779 H       1  ZINC000558213406    0.0600
     54 H54         1.2207    0.4794   48.5240 H       1  ZINC000558213406    0.0700
     55 H55         0.2176    2.5881   49.3581 H       1  ZINC000558213406    0.0800
     56 H56        -0.1633    1.2276   50.4408 H       1  ZINC000558213406    0.0600
     57 H57        -4.3194    0.8934   50.4166 H       1  ZINC000558213406    0.0800
     58 H58        -4.7803    2.0740   49.1586 H       1  ZINC000558213406    0.0800
@<TRIPOS>BOND
     1     1     2    2
     2     2     3   am
     3     2    17   am
     4     3     4    1
     5     3    32    1
     6     4    16   ar
     7     4     5   ar
     8     5     6   ar
     9     5    33    1
    10     6     7   ar
    11     6    34    1
    12     7     8    1
    13     7    15   ar
    14     8     9    1
    15     9    14   ar
    16     9    10   ar
    17    10    11   ar
    18    10    35    1
    19    11    12   ar
    20    11    36    1
    21    12    13   ar
    22    12    37    1
    23    13    14   ar
    24    14    38    1
    25    15    16   ar
    26    15    39    1
    27    16    40    1
    28    17    18    1
    29    17    41    1
    30    18    19    1
    31    18    31    1
    32    18    20    1
    33    20    21    1
    34    20    42    1
    35    20    43    1
    36    21    22    1
    37    21    44    1
    38    21    45    1
    39    22    23   am
    40    22    31    1
    41    23    24    2
    42    23    25    1
    43    25    30    1
    44    25    26    1
    45    25    46    1
    46    26    27    1
    47    26    47    1
    48    26    48    1
    49    27    28    1
    50    27    49    1
    51    27    50    1
    52    28    29    1
    53    28    51    1
    54    28    52    1
    55    29    30    1
    56    29    53    1
    57    29    54    1
    58    30    55    1
    59    30    56    1
    60    31    57    1
    61    31    58    1
@<TRIPOS>SUBSTRUCTURE
     1 ZINC000558213406        1 TEMP              0 ****  ****    0 ROOT


##########                                Name:    ZINC000298969660
##########                DOCK_Rotatable_Bonds:                  10
##########                         Heavy_Atoms:                  29
##########                    Molecular_Weight:             397.474
##########                DOCK_Rotatable_Bonds:                  10
##########                       Formal_Charge:          -0.0100008
##########                     HBond_Acceptors:                   7
##########                        HBond_Donors:                   2
##########                         Heavy_Atoms:                  29
##########                          Grid_Score:          -34.003277
##########                     Grid_vdw_energy:          -33.590519
##########                      Grid_es_energy:           -0.412759
##########           Internal_energy_repulsive:           17.687433

@<TRIPOS>MOLECULE
ZINC000298969660
 56 58 1 0 0
SMALL
USER_CHARGES


@<TRIPOS>ATOM
      1 C1         -0.8647    0.7187   45.6430 C.3     1  ZINC000298969660    0.0800
      2 N2         -0.8631    0.5296   47.0957 N.am    1  ZINC000298969660   -0.6300
      3 C3         -0.2937   -0.6896   47.6749 C.3     1  ZINC000298969660    0.1400
      4 C4          1.2248   -0.5398   47.7875 C.3     1  ZINC000298969660    0.0700
      5 H5          1.6473   -1.4423   48.2291 H       1  ZINC000298969660    0.0500
      6 C6          1.5547    0.6646   48.6732 C.3     1  ZINC000298969660   -0.1500
      7 C7          3.0748    0.8441   48.7322 C.3     1  ZINC000298969660   -0.1200
      8 C8          3.6145    1.0048   47.3077 C.3     1  ZINC000298969660   -0.1600
      9 C9          3.2050   -0.2127   46.4747 C.3     1  ZINC000298969660    0.0600
     10 O10         1.7818   -0.3398   46.4867 O.3     1  ZINC000298969660   -0.3600
     11 C11        -1.3853    1.4772   47.8993 C.2     1  ZINC000298969660    0.7100
     12 O12        -1.8591    2.4884   47.4183 O.2     1  ZINC000298969660   -0.5400
     13 N13        -1.3823    1.3040   49.2359 N.am    1  ZINC000298969660   -0.6900
     14 C14        -1.9245    2.2880   50.0701 C.ar    1  ZINC000298969660    0.2000
     15 C15        -1.0959    3.2346   50.6584 C.ar    1  ZINC000298969660   -0.1800
     16 C16        -1.6312    4.2059   51.4825 C.ar    1  ZINC000298969660   -0.0600
     17 C17        -2.9914    4.2383   51.7232 C.ar    1  ZINC000298969660   -0.2300
     18 C18        -3.8243    3.2947   51.1379 C.ar    1  ZINC000298969660    0.1500
     19 O19        -5.1619    3.3277   51.3759 O.3     1  ZINC000298969660   -0.2900
     20 C20        -5.6643    2.4434   52.3797 C.3     1  ZINC000298969660    0.0400
     21 C21        -7.0999    2.1010   52.0748 C.2     1  ZINC000298969660    0.5100
     22 O22        -7.6917    2.6943   51.1979 O.2     1  ZINC000298969660   -0.4900
     23 N23        -7.7261    1.1357   52.7765 N.am    1  ZINC000298969660   -0.6700
     24 C24        -9.0590    0.8178   52.4933 C.ar    1  ZINC000298969660    0.1400
     25 C25        -9.3874   -0.4451   52.0181 C.ar    1  ZINC000298969660   -0.1400
     26 C26       -10.7040   -0.7557   51.7396 C.ar    1  ZINC000298969660   -0.1000
     27 C27       -11.6947    0.1894   51.9329 C.ar    1  ZINC000298969660   -0.1300
     28 C28       -11.3710    1.4479   52.4057 C.ar    1  ZINC000298969660   -0.1000
     29 C29       -10.0571    1.7627   52.6924 C.ar    1  ZINC000298969660   -0.1200
     30 C30        -3.2918    2.3225   50.3062 C.ar    1  ZINC000298969660   -0.1500
     31 H31        -1.7838    0.3089   45.2242 H       1  ZINC000298969660    0.0600
     32 H32        -0.8046    1.7830   45.4151 H       1  ZINC000298969660    0.0700
     33 H33        -0.0070    0.2052   45.2087 H       1  ZINC000298969660    0.0800
     34 H34        -0.7172   -0.8532   48.6659 H       1  ZINC000298969660    0.1000
     35 H35        -0.5283   -1.5400   47.0347 H       1  ZINC000298969660    0.0900
     36 H36         1.0981    1.5611   48.2538 H       1  ZINC000298969660    0.0800
     37 H37         1.1688    0.4942   49.6783 H       1  ZINC000298969660    0.0700
     38 H38         3.3147    1.7331   49.3155 H       1  ZINC000298969660    0.0700
     39 H39         3.5276   -0.0318   49.1970 H       1  ZINC000298969660    0.0600
     40 H40         3.1995    1.9081   46.8607 H       1  ZINC000298969660    0.0700
     41 H41         4.7017    1.0777   47.3362 H       1  ZINC000298969660    0.0700
     42 H42         3.5498   -0.0839   45.4488 H       1  ZINC000298969660    0.0900
     43 H43         3.6537   -1.1110   46.8991 H       1  ZINC000298969660    0.0400
     44 H44        -1.0042    0.4973   49.6195 H       1  ZINC000298969660    0.4100
     45 H45        -0.0324    3.2114   50.4719 H       1  ZINC000298969660    0.1300
     46 H46        -0.9853    4.9408   51.9397 H       1  ZINC000298969660    0.1300
     47 H47        -3.4070    4.9987   52.3679 H       1  ZINC000298969660    0.1300
     48 H48        -5.0679    1.5312   52.3918 H       1  ZINC000298969660    0.1000
     49 H49        -5.6056    2.9288   53.3539 H       1  ZINC000298969660    0.1000
     50 H50        -7.2528    0.6613   53.4777 H       1  ZINC000298969660    0.4100
     51 H51        -8.6139   -1.1834   51.8661 H       1  ZINC000298969660    0.1300
     52 H52       -10.9599   -1.7377   51.3699 H       1  ZINC000298969660    0.1300
     53 H53       -12.7234   -0.0559   51.7141 H       1  ZINC000298969660    0.1200
     54 H54       -12.1470    2.1841   52.5551 H       1  ZINC000298969660    0.1300
     55 H55        -9.8049    2.7458   53.0615 H       1  ZINC000298969660    0.1300
     56 H56        -3.9383    1.5876   49.8499 H       1  ZINC000298969660    0.1500
@<TRIPOS>BOND
     1     1     2    1
     2     1    31    1
     3     1    32    1
     4     1    33    1
     5     2     3    1
     6     2    11   am
     7     3     4    1
     8     3    34    1
     9     3    35    1
    10     4     5    1
    11     4    10    1
    12     4     6    1
    13     6     7    1
    14     6    36    1
    15     6    37    1
    16     7     8    1
    17     7    38    1
    18     7    39    1
    19     8     9    1
    20     8    40    1
    21     8    41    1
    22     9    10    1
    23     9    42    1
    24     9    43    1
    25    11    12    2
    26    11    13   am
    27    13    14    1
    28    13    44    1
    29    14    30   ar
    30    14    15   ar
    31    15    16   ar
    32    15    45    1
    33    16    17   ar
    34    16    46    1
    35    17    18   ar
    36    17    47    1
    37    18    19    1
    38    18    30   ar
    39    19    20    1
    40    20    21    1
    41    20    48    1
    42    20    49    1
    43    21    22    2
    44    21    23   am
    45    23    24    1
    46    23    50    1
    47    24    29   ar
    48    24    25   ar
    49    25    26   ar
    50    25    51    1
    51    26    27   ar
    52    26    52    1
    53    27    28   ar
    54    27    53    1
    55    28    29   ar
    56    28    54    1
    57    29    55    1
    58    30    56    1
@<TRIPOS>SUBSTRUCTURE
     1 ZINC000298969660        1 TEMP              0 ****  ****    0 ROOT


##########                                Name:    ZINC001461256440
##########                DOCK_Rotatable_Bonds:                  13
##########                         Heavy_Atoms:                  26
##########                    Molecular_Weight:             367.445
##########                DOCK_Rotatable_Bonds:                  13
##########                       Formal_Charge:        -6.37025e-07
##########                     HBond_Acceptors:                   8
##########                        HBond_Donors:                   1
##########                         Heavy_Atoms:                  26
##########                          Grid_Score:          -33.925789
##########                     Grid_vdw_energy:          -34.087540
##########                      Grid_es_energy:            0.161753
##########           Internal_energy_repulsive:           35.026814

@<TRIPOS>MOLECULE
ZINC001461256440
 55 55 1 0 0
SMALL
USER_CHARGES


@<TRIPOS>ATOM
      1 C1          0.4685    0.1626   44.9594 C.3     1  ZINC001461256440   -0.1500
      2 C2         -0.8975   -0.3831   45.3806 C.3     1  ZINC001461256440    0.0600
      3 O3         -1.1956    0.0507   46.7339 O.3     1  ZINC001461256440   -0.3600
      4 C4         -0.6628   -0.6671   47.7352 C.2     1  ZINC001461256440    0.4400
      5 O5         -0.1224   -1.7220   47.5012 O.2     1  ZINC001461256440   -0.4800
      6 C6         -0.7389   -0.1572   49.1513 C.3     1  ZINC001461256440    0.1400
      7 N7         -0.2020    1.2047   49.2094 N.pl3   1  ZINC001461256440   -0.3800
      8 N8          1.1534    1.5551   49.2545 N.2     1  ZINC001461256440   -0.2800
      9 C9          1.2408    2.8599   49.2992 C.2     1  ZINC001461256440    0.1000
     10 C10         2.5183    3.6572   49.3561 C.3     1  ZINC001461256440   -0.0700
     11 C11        -0.0532    3.3877   49.2842 C.2     1  ZINC001461256440   -0.2700
     12 C12        -0.9273    2.3463   49.2231 C.2     1  ZINC001461256440    0.3100
     13 N13        -2.3186    2.4392   49.1894 N.am    1  ZINC001461256440   -0.6500
     14 C14        -2.9892    2.9048   50.2617 C.2     1  ZINC001461256440    0.5200
     15 O15        -2.3827    3.2444   51.2557 O.2     1  ZINC001461256440   -0.5000
     16 C16        -4.4925    3.0034   50.2259 C.3     1  ZINC001461256440   -0.1300
     17 C17        -5.0988    1.8416   51.0154 C.3     1  ZINC001461256440   -0.1100
     18 C18        -6.6037    2.0651   51.1768 C.3     1  ZINC001461256440   -0.1100
     19 C19        -7.1949    0.9504   52.0424 C.3     1  ZINC001461256440   -0.1200
     20 C20        -8.6723    1.1855   52.2239 C.2     1  ZINC001461256440    0.4600
     21 O21        -9.1138    2.3097   52.1908 O.2     1  ZINC001461256440   -0.5000
     22 O22        -9.4979    0.1458   52.4223 O.3     1  ZINC001461256440   -0.3500
     23 C23       -10.8539    0.4516   52.8420 C.3     1  ZINC001461256440    0.1200
     24 C24       -11.5971   -0.8492   53.1529 C.3     1  ZINC001461256440   -0.1800
     25 C25       -10.8145    1.3284   54.0951 C.3     1  ZINC001461256440   -0.1400
     26 C26       -11.5790    1.1976   51.7201 C.3     1  ZINC001461256440   -0.1800
     27 H27         0.6922   -0.1631   43.9435 H       1  ZINC001461256440    0.0800
     28 H28         0.4517    1.2518   44.9964 H       1  ZINC001461256440    0.0700
     29 H29         1.2345   -0.2123   45.6381 H       1  ZINC001461256440    0.0700
     30 H30        -1.6636   -0.0082   44.7019 H       1  ZINC001461256440    0.0700
     31 H31        -0.8807   -1.4724   45.3436 H       1  ZINC001461256440    0.0700
     32 H32        -1.7780   -0.1524   49.4804 H       1  ZINC001461256440    0.1300
     33 H33        -0.1543   -0.8063   49.8031 H       1  ZINC001461256440    0.1400
     34 H34         2.8515    3.8825   48.3430 H       1  ZINC001461256440    0.0800
     35 H35         2.3423    4.5875   49.8960 H       1  ZINC001461256440    0.0800
     36 H36         3.2854    3.0781   49.8705 H       1  ZINC001461256440    0.0700
     37 H37        -0.3131    4.4357   49.3125 H       1  ZINC001461256440    0.1800
     38 H38        -2.8035    2.1687   48.3940 H       1  ZINC001461256440    0.4100
     39 H39        -4.8054    3.9479   50.6712 H       1  ZINC001461256440    0.1000
     40 H40        -4.8350    2.9582   49.1921 H       1  ZINC001461256440    0.1000
     41 H41        -4.9254    0.9085   50.4795 H       1  ZINC001461256440    0.0800
     42 H42        -4.6319    1.7879   51.9989 H       1  ZINC001461256440    0.0800
     43 H43        -6.7787    3.0285   51.6557 H       1  ZINC001461256440    0.0700
     44 H44        -7.0798    2.0548   50.1964 H       1  ZINC001461256440    0.0700
     45 H45        -7.0372   -0.0112   51.5540 H       1  ZINC001461256440    0.1100
     46 H46        -6.7050    0.9481   53.0161 H       1  ZINC001461256440    0.1100
     47 H47       -11.0804   -1.3807   53.9521 H       1  ZINC001461256440    0.0600
     48 H48       -12.6150   -0.6197   53.4679 H       1  ZINC001461256440    0.0700
     49 H49       -11.6251   -1.4740   52.2601 H       1  ZINC001461256440    0.0800
     50 H50       -10.2851    2.2551   53.8737 H       1  ZINC001461256440    0.0700
     51 H51       -11.8324    1.5579   54.4101 H       1  ZINC001461256440    0.0800
     52 H52       -10.2979    0.7969   54.8944 H       1  ZINC001461256440    0.0700
     53 H53       -11.6071    0.5728   50.8273 H       1  ZINC001461256440    0.0800
     54 H54       -12.5969    1.4270   52.0351 H       1  ZINC001461256440    0.0700
     55 H55       -11.0496    2.1242   51.4986 H       1  ZINC001461256440    0.0600
@<TRIPOS>BOND
     1     1     2    1
     2     1    27    1
     3     1    28    1
     4     1    29    1
     5     2     3    1
     6     2    30    1
     7     2    31    1
     8     3     4    1
     9     4     5    2
    10     4     6    1
    11     6     7    1
    12     6    32    1
    13     6    33    1
    14     7    12    1
    15     7     8    1
    16     8     9    2
    17     9    10    1
    18     9    11    1
    19    10    34    1
    20    10    35    1
    21    10    36    1
    22    11    12    2
    23    11    37    1
    24    12    13    1
    25    13    14   am
    26    13    38    1
    27    14    15    2
    28    14    16    1
    29    16    17    1
    30    16    39    1
    31    16    40    1
    32    17    18    1
    33    17    41    1
    34    17    42    1
    35    18    19    1
    36    18    43    1
    37    18    44    1
    38    19    20    1
    39    19    45    1
    40    19    46    1
    41    20    21    2
    42    20    22    1
    43    22    23    1
    44    23    24    1
    45    23    25    1
    46    23    26    1
    47    24    47    1
    48    24    48    1
    49    24    49    1
    50    25    50    1
    51    25    51    1
    52    25    52    1
    53    26    53    1
    54    26    54    1
    55    26    55    1
@<TRIPOS>SUBSTRUCTURE
     1 ZINC001461256440        1 TEMP              0 ****  ****    0 ROOT


##########                                Name:    ZINC000002634904
##########                DOCK_Rotatable_Bonds:                   7
##########                         Heavy_Atoms:                  31
##########                    Molecular_Weight:             423.498
##########                DOCK_Rotatable_Bonds:                   7
##########                       Formal_Charge:        -7.45058e-08
##########                     HBond_Acceptors:                   7
##########                        HBond_Donors:                   1
##########                         Heavy_Atoms:                  31
##########                          Grid_Score:          -33.848835
##########                     Grid_vdw_energy:          -33.749702
##########                      Grid_es_energy:           -0.099132
##########           Internal_energy_repulsive:            4.761976

@<TRIPOS>MOLECULE
ZINC000002634904
 48 51 1 0 0
SMALL
USER_CHARGES


@<TRIPOS>ATOM
      1 N1        -13.1381    0.0039   53.3673 N.1     1  ZINC000002634904   -0.4100
      2 C2        -12.0304    0.1085   53.1384 C.1     1  ZINC000002634904    0.2500
      3 C3        -10.6339    0.2403   52.8500 C.ar    1  ZINC000002634904   -0.0400
      4 C4         -9.9689   -0.7595   52.1347 C.ar    1  ZINC000002634904   -0.0500
      5 C5         -8.6260   -0.6294   51.8592 C.ar    1  ZINC000002634904   -0.1400
      6 C6         -7.9314    0.4954   52.2919 C.ar    1  ZINC000002634904    0.1700
      7 N7         -6.5706    0.6238   52.0108 N.am    1  ZINC000002634904   -0.6700
      8 C8         -6.1396    1.6136   51.2040 C.2     1  ZINC000002634904    0.5400
      9 O9         -6.9345    2.3926   50.7221 O.2     1  ZINC000002634904   -0.5000
     10 C10        -4.6700    1.7523   50.9004 C.3     1  ZINC000002634904   -0.1700
     11 S11        -4.4526    2.7823   49.4281 S.3     1  ZINC000002634904    0.1300
     12 C12        -2.7245    2.5695   49.1582 C.ar    1  ZINC000002634904    0.2100
     13 N13        -1.8627    2.9907   50.0770 N.ar    1  ZINC000002634904   -0.2900
     14 N14        -0.5922    2.8563   49.9225 N.ar    1  ZINC000002634904   -0.1600
     15 C15        -0.1037    2.2856   48.8264 C.ar    1  ZINC000002634904    0.0600
     16 C16         1.3587    2.1296   48.6470 C.ar    1  ZINC000002634904   -0.0500
     17 C17         2.0963    3.1273   48.0105 C.ar    1  ZINC000002634904   -0.0800
     18 C18         3.4580    2.9763   47.8463 C.ar    1  ZINC000002634904   -0.1200
     19 C19         4.0915    1.8377   48.3113 C.ar    1  ZINC000002634904   -0.1000
     20 C20         3.3651    0.8446   48.9434 C.ar    1  ZINC000002634904   -0.1200
     21 C21         2.0038    0.9870   49.1190 C.ar    1  ZINC000002634904   -0.0800
     22 C22        -0.9989    1.8308   47.8373 C.ar    1  ZINC000002634904    0.2300
     23 C23        -0.4978    1.1888   46.5997 C.ar    1  ZINC000002634904   -0.0700
     24 C24         0.0882    1.9619   45.5979 C.ar    1  ZINC000002634904   -0.0700
     25 C25         0.5535    1.3583   44.4476 C.ar    1  ZINC000002634904   -0.1200
     26 C26         0.4396   -0.0111   44.2871 C.ar    1  ZINC000002634904   -0.0900
     27 C27        -0.1411   -0.7833   45.2772 C.ar    1  ZINC000002634904   -0.1200
     28 C28        -0.6049   -0.1917   46.4344 C.ar    1  ZINC000002634904   -0.0700
     29 N29        -2.3047    1.9861   48.0426 N.ar    1  ZINC000002634904   -0.4400
     30 C30        -8.5900    1.4926   53.0038 C.ar    1  ZINC000002634904   -0.1200
     31 C31        -9.9339    1.3718   53.2782 C.ar    1  ZINC000002634904   -0.0500
     32 H32       -10.5076   -1.6333   51.7987 H       1  ZINC000002634904    0.1400
     33 H33        -8.1115   -1.4017   51.3068 H       1  ZINC000002634904    0.1400
     34 H34        -5.9348    0.0009   52.3964 H       1  ZINC000002634904    0.4200
     35 H35        -4.1665    2.2183   51.7474 H       1  ZINC000002634904    0.1300
     36 H36        -4.2415    0.7663   50.7206 H       1  ZINC000002634904    0.1300
     37 H37         1.6027    4.0163   47.6465 H       1  ZINC000002634904    0.1300
     38 H38         4.0303    3.7483   47.3536 H       1  ZINC000002634904    0.1300
     39 H39         5.1574    1.7237   48.1798 H       1  ZINC000002634904    0.1300
     40 H40         3.8651   -0.0421   49.3043 H       1  ZINC000002634904    0.1300
     41 H41         1.4379    0.2111   49.6130 H       1  ZINC000002634904    0.1200
     42 H42         0.1773    3.0311   45.7219 H       1  ZINC000002634904    0.1300
     43 H43         1.0071    1.9561   43.6709 H       1  ZINC000002634904    0.1300
     44 H44         0.8053   -0.4790   43.3851 H       1  ZINC000002634904    0.1300
     45 H45        -0.2275   -1.8518   45.1461 H       1  ZINC000002634904    0.1300
     46 H46        -1.0581   -0.7956   47.2066 H       1  ZINC000002634904    0.1300
     47 H47        -8.0475    2.3647   53.3378 H       1  ZINC000002634904    0.1500
     48 H48       -10.4447    2.1466   53.8306 H       1  ZINC000002634904    0.1400
@<TRIPOS>BOND
     1     1     2    3
     2     2     3    1
     3     3    31   ar
     4     3     4   ar
     5     4     5   ar
     6     4    32    1
     7     5     6   ar
     8     5    33    1
     9     6     7    1
    10     6    30   ar
    11     7     8   am
    12     7    34    1
    13     8     9    2
    14     8    10    1
    15    10    11    1
    16    10    35    1
    17    10    36    1
    18    11    12    1
    19    12    29   ar
    20    12    13   ar
    21    13    14   ar
    22    14    15   ar
    23    15    16    1
    24    15    22   ar
    25    16    21   ar
    26    16    17   ar
    27    17    18   ar
    28    17    37    1
    29    18    19   ar
    30    18    38    1
    31    19    20   ar
    32    19    39    1
    33    20    21   ar
    34    20    40    1
    35    21    41    1
    36    22    23    1
    37    22    29   ar
    38    23    28   ar
    39    23    24   ar
    40    24    25   ar
    41    24    42    1
    42    25    26   ar
    43    25    43    1
    44    26    27   ar
    45    26    44    1
    46    27    28   ar
    47    27    45    1
    48    28    46    1
    49    30    31   ar
    50    30    47    1
    51    31    48    1
@<TRIPOS>SUBSTRUCTURE
     1 ZINC000002634904        1 TEMP              0 ****  ****    0 ROOT


##########                                Name:    ZINC001411334959
##########                DOCK_Rotatable_Bonds:                   9
##########                         Heavy_Atoms:                  24
##########                    Molecular_Weight:              339.37
##########                DOCK_Rotatable_Bonds:                   9
##########                       Formal_Charge:           0.0199995
##########                     HBond_Acceptors:                   9
##########                        HBond_Donors:                   3
##########                         Heavy_Atoms:                  24
##########                          Grid_Score:          -33.809296
##########                     Grid_vdw_energy:          -32.517082
##########                      Grid_es_energy:           -1.292212
##########           Internal_energy_repulsive:           10.139901

@<TRIPOS>MOLECULE
ZINC001411334959
 46 48 1 0 0
SMALL
USER_CHARGES


@<TRIPOS>ATOM
      1 O1         -8.3212    0.0536   52.4235 O.2     1  ZINC001411334959   -0.5400
      2 C2         -8.6171    1.2295   52.3992 C.2     1  ZINC001411334959    0.5200
      3 C3        -10.0613    1.6455   52.5099 C.3     1  ZINC001411334959   -0.1400
      4 C4        -10.9621    0.4466   52.2061 C.3     1  ZINC001411334959   -0.0100
      5 C5        -11.1620   -0.3625   53.4617 C.2     1  ZINC001411334959    0.0100
      6 N6        -10.4808   -1.4210   53.8381 N.2     1  ZINC001411334959   -0.2800
      7 N7        -10.9457   -1.8318   54.9646 N.pl3   1  ZINC001411334959   -0.2500
      8 N8        -11.9161   -1.0848   55.3570 N.2     1  ZINC001411334959   -0.2800
      9 C9        -12.1055   -0.1373   54.4667 C.2     1  ZINC001411334959   -0.0200
     10 N10        -7.6539    2.1645   52.2788 N.am    1  ZINC001411334959   -0.7200
     11 C11        -6.2500    1.7602   52.1712 C.3     1  ZINC001411334959    0.1200
     12 C12        -5.8861    1.1552   50.8049 C.3     1  ZINC001411334959   -0.1400
     13 C13        -4.5630    1.9330   50.9010 C.3     1  ZINC001411334959   -0.1200
     14 C14        -4.1177    2.5511   49.5742 C.3     1  ZINC001411334959    0.1300
     15 N15        -3.0995    1.6985   48.9557 N.am    1  ZINC001411334959   -0.7200
     16 C16        -1.7931    1.9979   49.0974 C.2     1  ZINC001411334959    0.5100
     17 O17        -1.4603    2.9725   49.7380 O.2     1  ZINC001411334959   -0.5100
     18 C18        -0.7457    1.1219   48.4597 C.3     1  ZINC001411334959    0.0700
     19 F19         0.5176    1.7167   48.5459 F       1  ZINC001411334959   -0.1800
     20 C20        -0.7410   -0.2916   49.1030 C.3     1  ZINC001411334959   -0.1600
     21 C21        -0.2131   -1.1491   47.9253 C.3     1  ZINC001411334959    0.0500
     22 O22        -0.7879   -0.5622   46.7469 O.3     1  ZINC001411334959   -0.3700
     23 C23        -1.1082    0.8123   46.9913 C.3     1  ZINC001411334959    0.0400
     24 C24        -5.3002    2.9185   51.8230 C.3     1  ZINC001411334959   -0.1400
     25 H25       -10.2602    2.0024   53.5205 H       1  ZINC001411334959    0.1000
     26 H26       -10.2655    2.4434   51.7960 H       1  ZINC001411334959    0.1000
     27 H27       -11.9276    0.8001   51.8440 H       1  ZINC001411334959    0.1000
     28 H28       -10.4938   -0.1756   51.4435 H       1  ZINC001411334959    0.0900
     29 H29       -10.6102   -2.6005   55.4517 H       1  ZINC001411334959    0.4700
     30 H30       -12.8438    0.6500   54.5014 H       1  ZINC001411334959    0.2000
     31 H31        -7.8904    3.1052   52.2633 H       1  ZINC001411334959    0.4000
     32 H32        -5.9158    1.1611   53.0182 H       1  ZINC001411334959    0.1200
     33 H33        -5.7590    0.0729   50.8264 H       1  ZINC001411334959    0.0800
     34 H34        -6.5317    1.4905   49.9931 H       1  ZINC001411334959    0.0900
     35 H35        -3.7665    1.3798   51.3987 H       1  ZINC001411334959    0.1000
     36 H36        -4.9752    2.6355   48.9066 H       1  ZINC001411334959    0.0800
     37 H37        -3.7005    3.5414   49.7566 H       1  ZINC001411334959    0.0800
     38 H38        -3.3655    0.9184   48.4443 H       1  ZINC001411334959    0.4100
     39 H39        -0.0619   -0.3334   49.9546 H       1  ZINC001411334959    0.1000
     40 H40        -1.7475   -0.5959   49.3902 H       1  ZINC001411334959    0.1100
     41 H41         0.8749   -1.1005   47.8799 H       1  ZINC001411334959    0.0700
     42 H42        -0.5423   -2.1826   48.0324 H       1  ZINC001411334959    0.1000
     43 H43        -2.1735    0.9780   46.8305 H       1  ZINC001411334959    0.0900
     44 H44        -0.5287    1.4511   46.3248 H       1  ZINC001411334959    0.0900
     45 H45        -5.7857    3.7357   51.2896 H       1  ZINC001411334959    0.0900
     46 H46        -4.7001    3.2596   52.6665 H       1  ZINC001411334959    0.0800
@<TRIPOS>BOND
     1     1     2    2
     2     2     3    1
     3     2    10   am
     4     3     4    1
     5     3    25    1
     6     3    26    1
     7     4     5    1
     8     4    27    1
     9     4    28    1
    10     5     9    1
    11     5     6    2
    12     6     7    1
    13     7     8    1
    14     7    29    1
    15     8     9    2
    16     9    30    1
    17    10    11    1
    18    10    31    1
    19    11    24    1
    20    11    12    1
    21    11    32    1
    22    12    13    1
    23    12    33    1
    24    12    34    1
    25    13    14    1
    26    13    24    1
    27    13    35    1
    28    14    15    1
    29    14    36    1
    30    14    37    1
    31    15    16   am
    32    15    38    1
    33    16    17    2
    34    16    18    1
    35    18    23    1
    36    18    19    1
    37    18    20    1
    38    20    21    1
    39    20    39    1
    40    20    40    1
    41    21    22    1
    42    21    41    1
    43    21    42    1
    44    22    23    1
    45    23    43    1
    46    23    44    1
    47    24    45    1
    48    24    46    1
@<TRIPOS>SUBSTRUCTURE
     1 ZINC001411334959        1 TEMP              0 ****  ****    0 ROOT


##########                                Name:    ZINC000489403631
##########                DOCK_Rotatable_Bonds:                   7
##########                         Heavy_Atoms:                  28
##########                    Molecular_Weight:             381.391
##########                DOCK_Rotatable_Bonds:                   7
##########                       Formal_Charge:          -0.0300003
##########                     HBond_Acceptors:                   9
##########                        HBond_Donors:                   1
##########                         Heavy_Atoms:                  28
##########                          Grid_Score:          -33.791401
##########                     Grid_vdw_energy:          -32.804169
##########                      Grid_es_energy:           -0.987233
##########           Internal_energy_repulsive:           11.345460

@<TRIPOS>MOLECULE
ZINC000489403631
 47 49 1 0 0
SMALL
USER_CHARGES


@<TRIPOS>ATOM
      1 C1          0.7531    3.8119   49.0952 C.3     1  ZINC000489403631   -0.1100
      2 C2         -0.2928    2.7430   49.2810 C.ar    1  ZINC000489403631   -0.0800
      3 C3         -1.4658    3.0336   49.9483 C.ar    1  ZINC000489403631   -0.0900
      4 C4         -2.4295    2.0484   50.1194 C.ar    1  ZINC000489403631    0.1200
      5 N5         -3.6202    2.3429   50.7962 N.am    1  ZINC000489403631   -0.6600
      6 C6         -4.7021    2.7569   50.1074 C.2     1  ZINC000489403631    0.5100
      7 O7         -4.6450    2.8746   48.9016 O.2     1  ZINC000489403631   -0.4600
      8 C8         -5.9830    3.0737   50.8355 C.3     1  ZINC000489403631    0.1700
      9 C9         -5.6610    3.8113   52.1368 C.3     1  ZINC000489403631   -0.1700
     10 C10        -6.8659    3.9583   49.9530 C.3     1  ZINC000489403631   -0.1700
     11 N11        -6.6912    1.8285   51.1424 N.pl3   1  ZINC000489403631   -0.3400
     12 C12        -7.8717    1.7249   51.7878 C.2     1  ZINC000489403631    0.1500
     13 C13        -8.1827    0.4105   51.8705 C.2     1  ZINC000489403631   -0.1900
     14 N14        -9.3945   -0.1597   52.5007 N.pl3   1  ZINC000489403631    0.0700
     15 O15        -9.5430   -1.3675   52.5530 O.2     1  ZINC000489403631   -0.1700
     16 O16       -10.2434    0.5790   52.9669 O.2     1  ZINC000489403631   -0.1600
     17 C17        -7.1569   -0.3140   51.2546 C.2     1  ZINC000489403631    0.1000
     18 N18        -6.2653    0.5354   50.8124 N.2     1  ZINC000489403631   -0.2200
     19 C19        -2.2126    0.7716   49.6192 C.ar    1  ZINC000489403631   -0.1100
     20 C20        -1.0388    0.4820   48.9517 C.ar    1  ZINC000489403631   -0.1700
     21 C21        -0.0790    1.4681   48.7762 C.ar    1  ZINC000489403631    0.1000
     22 O22         1.0765    1.1825   48.1190 O.3     1  ZINC000489403631   -0.2500
     23 C23         1.0553    1.1865   46.7620 C.ar    1  ZINC000489403631    0.1400
     24 C24         0.0136    1.7950   46.0657 C.ar    1  ZINC000489403631   -0.2000
     25 C25         0.0286    1.7776   44.6863 C.ar    1  ZINC000489403631    0.1200
     26 N26         1.0126    1.1946   44.0279 N.ar    1  ZINC000489403631   -0.4900
     27 C27         2.0168    0.6079   44.6517 C.ar    1  ZINC000489403631    0.1200
     28 C28         2.0777    0.5874   46.0299 C.ar    1  ZINC000489403631   -0.1800
     29 H29         0.5646    4.3467   48.1643 H       1  ZINC000489403631    0.0700
     30 H30         0.7106    4.5108   49.9306 H       1  ZINC000489403631    0.0700
     31 H31         1.7403    3.3516   49.0564 H       1  ZINC000489403631    0.0700
     32 H32        -1.6338    4.0269   50.3377 H       1  ZINC000489403631    0.1500
     33 H33        -3.6659    2.2488   51.7605 H       1  ZINC000489403631    0.4100
     34 H34        -5.1341    4.7378   51.9085 H       1  ZINC000489403631    0.1000
     35 H35        -6.5874    4.0405   52.6634 H       1  ZINC000489403631    0.0900
     36 H36        -5.0320    3.1811   52.7655 H       1  ZINC000489403631    0.0800
     37 H37        -7.0954    3.4329   49.0259 H       1  ZINC000489403631    0.0800
     38 H38        -7.7923    4.1875   50.4796 H       1  ZINC000489403631    0.0900
     39 H39        -6.3390    4.8848   49.7247 H       1  ZINC000489403631    0.0900
     40 H40        -8.4625    2.5442   52.1701 H       1  ZINC000489403631    0.2000
     41 H41        -7.1112   -1.3885   51.1565 H       1  ZINC000489403631    0.2100
     42 H42        -2.9615    0.0049   49.7522 H       1  ZINC000489403631    0.1300
     43 H43        -0.8699   -0.5111   48.5625 H       1  ZINC000489403631    0.1300
     44 H44        -0.7949    2.2734   46.5983 H       1  ZINC000489403631    0.1400
     45 H45        -0.7752    2.2466   44.1382 H       1  ZINC000489403631    0.1600
     46 H46         2.8027    0.1416   44.0761 H       1  ZINC000489403631    0.1700
     47 H47         2.9024    0.1058   46.5343 H       1  ZINC000489403631    0.1500
@<TRIPOS>BOND
     1     1     2    1
     2     1    29    1
     3     1    30    1
     4     1    31    1
     5     2    21   ar
     6     2     3   ar
     7     3     4   ar
     8     3    32    1
     9     4     5    1
    10     4    19   ar
    11     5     6   am
    12     5    33    1
    13     6     7    2
    14     6     8    1
    15     8     9    1
    16     8    10    1
    17     8    11    1
    18     9    34    1
    19     9    35    1
    20     9    36    1
    21    10    37    1
    22    10    38    1
    23    10    39    1
    24    11    18    1
    25    11    12    1
    26    12    13    2
    27    12    40    1
    28    13    14    1
    29    13    17    1
    30    14    15    2
    31    14    16    2
    32    17    18    2
    33    17    41    1
    34    19    20   ar
    35    19    42    1
    36    20    21   ar
    37    20    43    1
    38    21    22    1
    39    22    23    1
    40    23    28   ar
    41    23    24   ar
    42    24    25   ar
    43    24    44    1
    44    25    26   ar
    45    25    45    1
    46    26    27   ar
    47    27    28   ar
    48    27    46    1
    49    28    47    1
@<TRIPOS>SUBSTRUCTURE
     1 ZINC000489403631        1 TEMP              0 ****  ****    0 ROOT


##########                                Name:    ZINC000588570917
##########                DOCK_Rotatable_Bonds:                   7
##########                         Heavy_Atoms:                  25
##########                    Molecular_Weight:             366.481
##########                DOCK_Rotatable_Bonds:                   7
##########                       Formal_Charge:          -0.0100006
##########                     HBond_Acceptors:                   7
##########                        HBond_Donors:                   1
##########                         Heavy_Atoms:                  25
##########                          Grid_Score:          -33.790371
##########                     Grid_vdw_energy:          -33.328747
##########                      Grid_es_energy:           -0.461622
##########           Internal_energy_repulsive:           17.162659

@<TRIPOS>MOLECULE
ZINC000588570917
 51 52 1 0 0
SMALL
USER_CHARGES


@<TRIPOS>ATOM
      1 C1        -10.4943   -0.1611   53.0103 C.3     1  ZINC000588570917   -0.1300
      2 C2         -9.1086   -0.0940   52.4220 C.2     1  ZINC000588570917   -0.0500
      3 C3         -8.4380    1.0548   52.4287 C.2     1  ZINC000588570917   -0.2000
      4 C4         -9.0647    2.2897   53.0230 C.3     1  ZINC000588570917   -0.0900
      5 C5         -8.7163    2.3730   54.5104 C.3     1  ZINC000588570917   -0.1500
      6 C6         -7.0850    1.1198   51.8560 C.2     1  ZINC000588570917    0.5600
      7 O7         -6.5768    0.1218   51.3818 O.2     1  ZINC000588570917   -0.5100
      8 N8         -6.4083    2.2853   51.8567 N.am    1  ZINC000588570917   -0.6800
      9 C9         -5.1218    2.3472   51.3122 C.ar    1  ZINC000588570917    0.2100
     10 C10        -4.0577    2.7872   52.0888 C.ar    1  ZINC000588570917   -0.1700
     11 C11        -2.7883    2.8466   51.5480 C.ar    1  ZINC000588570917    0.0000
     12 C12        -2.5761    2.4687   50.2349 C.ar    1  ZINC000588570917   -0.7000
     13 S13        -0.9549    2.5460   49.5489 S.o2    1  ZINC000588570917    2.6900
     14 O14        -0.8809    3.7701   48.8310 O.2     1  ZINC000588570917   -0.9500
     15 O15        -0.0588    2.2046   50.5975 O.2     1  ZINC000588570917   -0.9500
     16 N16        -0.8405    1.3364   48.4237 N.am    1  ZINC000588570917   -1.0000
     17 C17        -0.5473    1.6387   47.0137 C.3     1  ZINC000588570917    0.0900
     18 C18         0.6129    0.7459   46.5590 C.3     1  ZINC000588570917    0.0700
     19 H19         1.5244    1.0405   47.0791 H       1  ZINC000588570917    0.0700
     20 C20         0.8138    0.8983   45.0499 C.3     1  ZINC000588570917   -0.1500
     21 O21         0.3069   -0.6163   46.8659 O.3     1  ZINC000588570917   -0.3700
     22 C22         0.1553   -0.8818   48.2624 C.3     1  ZINC000588570917    0.0800
     23 H23        -0.0316   -1.9452   48.4126 H       1  ZINC000588570917    0.1200
     24 C24         1.4328   -0.4780   49.0010 C.3     1  ZINC000588570917   -0.1900
     25 C25        -1.0229   -0.0729   48.8054 C.3     1  ZINC000588570917    0.0900
     26 C26        -3.6332    2.0296   49.4591 C.ar    1  ZINC000588570917    0.0000
     27 C27        -4.9043    1.9632   49.9952 C.ar    1  ZINC000588570917   -0.1400
     28 H28       -10.8810   -1.1756   52.9144 H       1  ZINC000588570917    0.0600
     29 H29       -10.4554    0.1148   54.0641 H       1  ZINC000588570917    0.0800
     30 H30       -11.1489    0.5291   52.4780 H       1  ZINC000588570917    0.0800
     31 H31        -8.6599   -0.9786   51.9947 H       1  ZINC000588570917    0.1300
     32 H32        -8.6839    3.1731   52.5106 H       1  ZINC000588570917    0.0700
     33 H33       -10.1473    2.2401   52.9058 H       1  ZINC000588570917    0.0800
     34 H34        -7.6337    2.4226   54.6277 H       1  ZINC000588570917    0.0500
     35 H35        -9.1695    3.2662   54.9404 H       1  ZINC000588570917    0.0600
     36 H36        -9.0971    1.4896   55.0230 H       1  ZINC000588570917    0.0600
     37 H37        -6.8136    3.0813   52.2348 H       1  ZINC000588570917    0.4100
     38 H38        -4.2228    3.0829   53.1144 H       1  ZINC000588570917    0.1400
     39 H39        -1.9605    3.1890   52.1514 H       1  ZINC000588570917    0.1400
     40 H40        -1.4277    1.4354   46.4040 H       1  ZINC000588570917    0.0900
     41 H41        -0.2650    2.6868   46.9140 H       1  ZINC000588570917    0.1000
     42 H42         1.0431    1.9381   44.8170 H       1  ZINC000588570917    0.0700
     43 H43         1.6390    0.2633   44.7273 H       1  ZINC000588570917    0.0700
     44 H44        -0.0974    0.6019   44.5302 H       1  ZINC000588570917    0.0700
     45 H45         1.6179    0.5858   48.8518 H       1  ZINC000588570917    0.0600
     46 H46         1.3164   -0.6807   50.0657 H       1  ZINC000588570917    0.0700
     47 H47         2.2742   -1.0513   48.6119 H       1  ZINC000588570917    0.0700
     48 H48        -1.0579   -0.1592   49.8915 H       1  ZINC000588570917    0.1000
     49 H49        -1.9531   -0.4462   48.3769 H       1  ZINC000588570917    0.0900
     50 H50        -3.4642    1.7352   48.4339 H       1  ZINC000588570917    0.1400
     51 H51        -5.7294    1.6199   49.3888 H       1  ZINC000588570917    0.1500
@<TRIPOS>BOND
     1     1     2    1
     2     1    28    1
     3     1    29    1
     4     1    30    1
     5     2     3    2
     6     2    31    1
     7     3     4    1
     8     3     6    1
     9     4     5    1
    10     4    32    1
    11     4    33    1
    12     5    34    1
    13     5    35    1
    14     5    36    1
    15     6     7    2
    16     6     8   am
    17     8     9    1
    18     8    37    1
    19     9    27   ar
    20     9    10   ar
    21    10    11   ar
    22    10    38    1
    23    11    12   ar
    24    11    39    1
    25    12    13    1
    26    12    26   ar
    27    13    14    2
    28    13    15    2
    29    13    16   am
    30    16    25    1
    31    16    17    1
    32    17    18    1
    33    17    40    1
    34    17    41    1
    35    18    19    1
    36    18    20    1
    37    18    21    1
    38    20    42    1
    39    20    43    1
    40    20    44    1
    41    21    22    1
    42    22    23    1
    43    22    24    1
    44    22    25    1
    45    24    45    1
    46    24    46    1
    47    24    47    1
    48    25    48    1
    49    25    49    1
    50    26    27   ar
    51    26    50    1
    52    27    51    1
@<TRIPOS>SUBSTRUCTURE
     1 ZINC000588570917        1 TEMP              0 ****  ****    0 ROOT


##########                                Name:    ZINC000474368324
##########                DOCK_Rotatable_Bonds:                   9
##########                         Heavy_Atoms:                  27
##########                    Molecular_Weight:             417.332
##########                DOCK_Rotatable_Bonds:                   9
##########                       Formal_Charge:        -1.63913e-07
##########                     HBond_Acceptors:                   8
##########                        HBond_Donors:                   1
##########                         Heavy_Atoms:                  27
##########                          Grid_Score:          -33.743332
##########                     Grid_vdw_energy:          -32.909470
##########                      Grid_es_energy:           -0.833861
##########           Internal_energy_repulsive:           27.084452

@<TRIPOS>MOLECULE
ZINC000474368324
 53 54 1 0 0
SMALL
USER_CHARGES


@<TRIPOS>ATOM
      1 C1         -9.9733   -0.9827   52.3402 C.3     1  ZINC000474368324   -0.1500
      2 C2         -9.8185    0.5160   52.6063 C.3     1  ZINC000474368324    0.0600
      3 O3         -8.4920    0.9451   52.2004 O.3     1  ZINC000474368324   -0.3300
      4 C4         -8.1732    2.2301   52.4210 C.2     1  ZINC000474368324    0.4700
      5 O5         -8.9691    2.9674   52.9529 O.2     1  ZINC000474368324   -0.5100
      6 C6         -6.8224    2.7534   52.0055 C.3     1  ZINC000474368324   -0.0400
      7 C7         -6.4236    3.9159   52.9169 C.3     1  ZINC000474368324    0.0600
      8 O8         -6.5926    3.5304   54.2824 O.3     1  ZINC000474368324   -0.3700
      9 C9         -6.7199    4.6304   55.1855 C.3     1  ZINC000474368324    0.0300
     10 C10        -5.7843    1.6349   52.1227 C.3     1  ZINC000474368324   -0.1200
     11 C11        -4.4066    2.1795   51.7327 C.3     1  ZINC000474368324    0.1100
     12 N12        -4.4971    2.7812   50.3954 N.am    1  ZINC000474368324   -0.6300
     13 C13        -3.6555    2.4020   49.4134 C.2     1  ZINC000474368324    0.7100
     14 O14        -3.7405    2.9076   48.3109 O.2     1  ZINC000474368324   -0.5800
     15 N15        -2.7194    1.4625   49.6535 N.am    1  ZINC000474368324   -0.7400
     16 C16        -1.8046    1.0504   48.5862 C.3     1  ZINC000474368324    0.2000
     17 H17        -2.3745    0.6047   47.7710 H       1  ZINC000474368324    0.1100
     18 C18        -0.8108    0.0242   49.1343 C.3     1  ZINC000474368324   -0.1600
     19 C19        -1.0541    2.2533   48.0754 C.ar    1  ZINC000474368324   -0.0700
     20 C20        -0.7076    3.2713   48.9435 C.ar    1  ZINC000474368324   -0.1000
     21 C21        -0.0186    4.3752   48.4758 C.ar    1  ZINC000474368324   -0.0900
     22 C22         0.3243    4.4616   47.1399 C.ar    1  ZINC000474368324   -0.1000
     23 C23        -0.0217    3.4435   46.2695 C.ar    1  ZINC000474368324   -0.0300
     24 Cl24        0.4088    3.5517   44.5912 Cl      1  ZINC000474368324   -0.0400
     25 C25        -0.7070    2.3358   46.7388 C.ar    1  ZINC000474368324   -0.0300
     26 Cl26       -1.1414    1.0570   45.6481 Cl      1  ZINC000474368324   -0.0400
     27 C27        -5.5229    3.8037   50.1487 C.3     1  ZINC000474368324    0.1300
     28 C28        -6.8882    3.2409   50.5564 C.3     1  ZINC000474368324   -0.1200
     29 H29       -10.9690   -1.3049   52.6450 H       1  ZINC000474368324    0.0800
     30 H30        -9.8377   -1.1788   51.2767 H       1  ZINC000474368324    0.0700
     31 H31        -9.2236   -1.5322   52.9095 H       1  ZINC000474368324    0.0700
     32 H32       -10.5682    1.0654   52.0370 H       1  ZINC000474368324    0.0700
     33 H33        -9.9541    0.7120   53.6699 H       1  ZINC000474368324    0.0700
     34 H34        -5.3801    4.1755   52.7391 H       1  ZINC000474368324    0.0700
     35 H35        -7.0543    4.7787   52.7022 H       1  ZINC000474368324    0.0600
     36 H36        -5.8233    5.2481   55.1343 H       1  ZINC000474368324    0.0400
     37 H37        -7.5889    5.2280   54.9101 H       1  ZINC000474368324    0.0400
     38 H38        -6.8445    4.2544   56.2010 H       1  ZINC000474368324    0.0900
     39 H39        -5.7547    1.2722   53.1501 H       1  ZINC000474368324    0.1000
     40 H40        -6.0543    0.8167   51.4551 H       1  ZINC000474368324    0.0800
     41 H41        -4.0953    2.9358   52.4533 H       1  ZINC000474368324    0.0800
     42 H42        -3.6823    1.3651   51.7187 H       1  ZINC000474368324    0.0800
     43 H43        -2.6515    1.0593   50.5332 H       1  ZINC000474368324    0.3900
     44 H44        -0.2408    0.4699   49.9495 H       1  ZINC000474368324    0.0600
     45 H45        -1.3536   -0.8459   49.5037 H       1  ZINC000474368324    0.0700
     46 H46        -0.1300   -0.2825   48.3401 H       1  ZINC000474368324    0.0700
     47 H47        -0.9753    3.2048   49.9877 H       1  ZINC000474368324    0.1300
     48 H48         0.2515    5.1704   49.1550 H       1  ZINC000474368324    0.1400
     49 H49         0.8622    5.3243   46.7751 H       1  ZINC000474368324    0.1500
     50 H50        -5.3026    4.6925   50.7401 H       1  ZINC000474368324    0.0700
     51 H51        -5.5353    4.0609   49.0896 H       1  ZINC000474368324    0.1100
     52 H52        -7.1477    2.4075   49.9036 H       1  ZINC000474368324    0.0900
     53 H53        -7.6442    4.0212   50.4690 H       1  ZINC000474368324    0.0900
@<TRIPOS>BOND
     1     1     2    1
     2     1    29    1
     3     1    30    1
     4     1    31    1
     5     2     3    1
     6     2    32    1
     7     2    33    1
     8     3     4    1
     9     4     5    2
    10     4     6    1
    11     6    28    1
    12     6     7    1
    13     6    10    1
    14     7     8    1
    15     7    34    1
    16     7    35    1
    17     8     9    1
    18     9    36    1
    19     9    37    1
    20     9    38    1
    21    10    11    1
    22    10    39    1
    23    10    40    1
    24    11    12    1
    25    11    41    1
    26    11    42    1
    27    12    13   am
    28    12    27    1
    29    13    14    2
    30    13    15   am
    31    15    16    1
    32    15    43    1
    33    16    17    1
    34    16    18    1
    35    16    19    1
    36    18    44    1
    37    18    45    1
    38    18    46    1
    39    19    25   ar
    40    19    20   ar
    41    20    21   ar
    42    20    47    1
    43    21    22   ar
    44    21    48    1
    45    22    23   ar
    46    22    49    1
    47    23    24    1
    48    23    25   ar
    49    25    26    1
    50    27    28    1
    51    27    50    1
    52    27    51    1
    53    28    52    1
    54    28    53    1
@<TRIPOS>SUBSTRUCTURE
     1 ZINC000474368324        1 TEMP              0 ****  ****    0 ROOT


##########                                Name:    ZINC000637608314
##########                DOCK_Rotatable_Bonds:                   9
##########                         Heavy_Atoms:                  28
##########                    Molecular_Weight:             387.479
##########                DOCK_Rotatable_Bonds:                   9
##########                       Formal_Charge:           0.0499991
##########                     HBond_Acceptors:                   7
##########                        HBond_Donors:                   2
##########                         Heavy_Atoms:                  28
##########                          Grid_Score:          -33.726856
##########                     Grid_vdw_energy:          -31.859188
##########                      Grid_es_energy:           -1.867667
##########           Internal_energy_repulsive:           20.622526

@<TRIPOS>MOLECULE
ZINC000637608314
 57 59 1 0 0
SMALL
USER_CHARGES


@<TRIPOS>ATOM
      1 C1         -6.4566    0.6025   51.0963 C.3     1  ZINC000637608314   -0.1400
      2 C2         -5.9725    1.9620   51.6047 C.3     1  ZINC000637608314   -0.0400
      3 C3         -7.0010    3.0364   51.2460 C.3     1  ZINC000637608314   -0.1500
      4 C4         -5.8015    1.9067   53.1241 C.3     1  ZINC000637608314   -0.1500
      5 C5         -4.6511    2.2971   50.9624 C.2     1  ZINC000637608314    0.1900
      6 C6         -4.5318    2.2547   49.6148 C.2     1  ZINC000637608314   -0.2400
      7 C7         -3.3055    2.5654   49.0106 C.2     1  ZINC000637608314    0.0200
      8 C8         -2.2436    2.9080   49.7951 C.2     1  ZINC000637608314   -0.2400
      9 C9         -0.9142    3.2470   49.1713 C.3     1  ZINC000637608314    0.2100
     10 N10        -0.4336    2.1023   48.3937 N.am    1  ZINC000637608314   -0.7300
     11 C11        -0.6415    2.0566   47.0628 C.2     1  ZINC000637608314    0.7100
     12 O12        -1.2294    2.9647   46.5079 O.2     1  ZINC000637608314   -0.5900
     13 N13        -0.1979    1.0042   46.3472 N.am    1  ZINC000637608314   -0.6200
     14 C14        -0.4225    0.9553   44.9003 C.3     1  ZINC000637608314    0.2000
     15 C15         0.6286    1.7780   44.2007 C.2     1  ZINC000637608314   -0.0400
     16 C16         1.7685    1.3064   43.6643 C.2     1  ZINC000637608314   -0.1900
     17 C17         2.4524    2.4155   43.1156 C.2     1  ZINC000637608314   -0.2200
     18 C18         1.6896    3.4985   43.3494 C.2     1  ZINC000637608314   -0.0300
     19 O19         0.5834    3.1054   44.0020 O.3     1  ZINC000637608314   -0.1700
     20 C20         0.5088   -0.0909   47.0162 C.3     1  ZINC000637608314    0.1300
     21 C21         2.0159    0.1675   46.9640 C.3     1  ZINC000637608314    0.0700
     22 H22         2.3918   -0.0386   45.9619 H       1  ZINC000637608314    0.0900
     23 C23         2.7375   -0.7328   47.9896 C.3     1  ZINC000637608314   -0.1500
     24 C24         3.8319    0.2165   48.5491 C.3     1  ZINC000637608314   -0.1600
     25 C25         3.0913    1.5767   48.5062 C.3     1  ZINC000637608314    0.0500
     26 O26         2.2878    1.5296   47.3142 O.3     1  ZINC000637608314   -0.3800
     27 C27        -2.4022    2.9421   51.1910 C.2     1  ZINC000637608314    0.5300
     28 O28        -1.4602    3.2475   51.9047 O.2     1  ZINC000637608314   -0.5400
     29 N29        -3.5945    2.6438   51.7412 N.am    1  ZINC000637608314   -0.6000
     30 H30        -6.5785    0.6419   50.0138 H       1  ZINC000637608314    0.0700
     31 H31        -5.7239   -0.1628   51.3519 H       1  ZINC000637608314    0.0700
     32 H32        -7.4123    0.3602   51.5609 H       1  ZINC000637608314    0.0700
     33 H33        -7.9568    2.7940   51.7107 H       1  ZINC000637608314    0.0700
     34 H34        -6.6562    4.0049   51.6084 H       1  ZINC000637608314    0.0600
     35 H35        -7.1229    3.0758   50.1636 H       1  ZINC000637608314    0.0700
     36 H36        -5.0687    1.1413   53.3797 H       1  ZINC000637608314    0.0700
     37 H37        -5.4566    2.8752   53.4864 H       1  ZINC000637608314    0.0600
     38 H38        -6.7573    1.6643   53.5888 H       1  ZINC000637608314    0.0700
     39 H39        -5.3806    1.9815   49.0055 H       1  ZINC000637608314    0.1500
     40 H40        -3.2027    2.5333   47.9360 H       1  ZINC000637608314    0.1400
     41 H41        -1.0305    4.1093   48.5147 H       1  ZINC000637608314    0.0800
     42 H42        -0.1943    3.4817   49.9553 H       1  ZINC000637608314    0.0800
     43 H43         0.0345    1.3772   48.8366 H       1  ZINC000637608314    0.4000
     44 H44        -0.3627   -0.0779   44.5580 H       1  ZINC000637608314    0.1200
     45 H45        -1.4097    1.3570   44.6721 H       1  ZINC000637608314    0.0900
     46 H46         2.0982    0.2781   43.6551 H       1  ZINC000637608314    0.1500
     47 H47         3.4047    2.3969   42.6066 H       1  ZINC000637608314    0.1500
     48 H48         1.9248    4.5115   43.0584 H       1  ZINC000637608314    0.2000
     49 H49         0.1861   -0.1501   48.0557 H       1  ZINC000637608314    0.0800
     50 H50         0.2836   -1.0305   46.5118 H       1  ZINC000637608314    0.1000
     51 H51         2.0545   -1.0457   48.7794 H       1  ZINC000637608314    0.0800
     52 H52         3.1868   -1.5965   47.4992 H       1  ZINC000637608314    0.0900
     53 H53         4.1004   -0.0526   49.5708 H       1  ZINC000637608314    0.0800
     54 H54         4.7103    0.2268   47.9038 H       1  ZINC000637608314    0.0800
     55 H55         2.4580    1.6906   49.3859 H       1  ZINC000637608314    0.0600
     56 H56         3.8079    2.3959   48.4462 H       1  ZINC000637608314    0.0800
     57 H57        -3.6976    2.6696   52.7054 H       1  ZINC000637608314    0.4100
@<TRIPOS>BOND
     1     1     2    1
     2     1    30    1
     3     1    31    1
     4     1    32    1
     5     2     3    1
     6     2     4    1
     7     2     5    1
     8     3    33    1
     9     3    34    1
    10     3    35    1
    11     4    36    1
    12     4    37    1
    13     4    38    1
    14     5    29    1
    15     5     6    2
    16     6     7    1
    17     6    39    1
    18     7     8    2
    19     7    40    1
    20     8     9    1
    21     8    27    1
    22     9    10    1
    23     9    41    1
    24     9    42    1
    25    10    11   am
    26    10    43    1
    27    11    12    2
    28    11    13   am
    29    13    14    1
    30    13    20    1
    31    14    15    1
    32    14    44    1
    33    14    45    1
    34    15    19    1
    35    15    16    2
    36    16    17    1
    37    16    46    1
    38    17    18    2
    39    17    47    1
    40    18    19    1
    41    18    48    1
    42    20    21    1
    43    20    49    1
    44    20    50    1
    45    21    22    1
    46    21    26    1
    47    21    23    1
    48    23    24    1
    49    23    51    1
    50    23    52    1
    51    24    25    1
    52    24    53    1
    53    24    54    1
    54    25    26    1
    55    25    55    1
    56    25    56    1
    57    27    28    2
    58    27    29   am
    59    29    57    1
@<TRIPOS>SUBSTRUCTURE
     1 ZINC000637608314        1 TEMP              0 ****  ****    0 ROOT


##########                                Name:    ZINC000770850676
##########                DOCK_Rotatable_Bonds:                  13
##########                         Heavy_Atoms:                  30
##########                    Molecular_Weight:             412.486
##########                DOCK_Rotatable_Bonds:                  13
##########                       Formal_Charge:          -0.0299994
##########                     HBond_Acceptors:                   7
##########                        HBond_Donors:                   3
##########                         Heavy_Atoms:                  30
##########                          Grid_Score:          -33.724834
##########                     Grid_vdw_energy:          -32.153908
##########                      Grid_es_energy:           -1.570925
##########           Internal_energy_repulsive:           40.606068

@<TRIPOS>MOLECULE
ZINC000770850676
 58 60 1 0 0
SMALL
USER_CHARGES


@<TRIPOS>ATOM
      1 O1         -5.7375    2.3684   53.1307 O.2     1  ZINC000770850676   -0.5300
      2 C2         -5.6154    3.5722   53.0486 C.2     1  ZINC000770850676    0.5100
      3 N3         -5.5054    4.3163   54.1669 N.am    1  ZINC000770850676   -0.7000
      4 C4         -5.5396    3.6716   55.4820 C.3     1  ZINC000770850676    0.1600
      5 H5         -4.9077    2.7836   55.4678 H       1  ZINC000770850676    0.1000
      6 C6         -6.9775    3.2690   55.8154 C.3     1  ZINC000770850676    0.0600
      7 O7         -6.9703    2.3107   56.8755 O.3     1  ZINC000770850676   -0.5700
      8 C8         -5.0244    4.6472   56.5419 C.3     1  ZINC000770850676   -0.1500
      9 C9         -3.4996    4.5519   56.6247 C.3     1  ZINC000770850676    0.1500
     10 H10        -3.1385    5.1943   57.4278 H       1  ZINC000770850676    0.1100
     11 O11        -3.1205    3.1998   56.8892 O.3     1  ZINC000770850676   -0.5400
     12 C12        -2.8968    4.9959   55.3168 C.ar    1  ZINC000770850676   -0.1200
     13 C13        -3.5426    5.9431   54.5442 C.ar    1  ZINC000770850676   -0.1100
     14 C14        -2.9897    6.3503   53.3446 C.ar    1  ZINC000770850676   -0.1200
     15 C15        -1.7908    5.8108   52.9176 C.ar    1  ZINC000770850676   -0.1200
     16 C16        -1.1445    4.8643   53.6905 C.ar    1  ZINC000770850676   -0.1200
     17 C17        -1.6953    4.4602   54.8922 C.ar    1  ZINC000770850676   -0.1100
     18 C18        -5.5802    4.2355   51.6958 C.3     1  ZINC000770850676    0.1400
     19 H19        -5.0434    5.1819   51.7610 H       1  ZINC000770850676    0.1000
     20 C20        -7.0188    4.4816   51.1945 C.3     1  ZINC000770850676   -0.1200
     21 C21        -6.9140    4.1802   49.6760 C.3     1  ZINC000770850676   -0.1300
     22 C22        -5.8903    3.0177   49.6597 C.3     1  ZINC000770850676    0.1000
     23 N23        -4.9206    3.3523   50.7230 N.am    1  ZINC000770850676   -0.5900
     24 C24        -3.6463    2.9183   50.7889 C.2     1  ZINC000770850676    0.6700
     25 O25        -2.9358    3.2583   51.7142 O.2     1  ZINC000770850676   -0.5600
     26 O26        -3.1607    2.1081   49.8296 O.3     1  ZINC000770850676   -0.3600
     27 C27        -1.9683    2.5542   49.1313 C.3     1  ZINC000770850676    0.1300
     28 C28        -1.1760    1.3565   48.6744 C.ar    1  ZINC000770850676   -0.1000
     29 C29        -0.2122    0.8092   49.5006 C.ar    1  ZINC000770850676   -0.0900
     30 C30         0.5145   -0.2895   49.0814 C.ar    1  ZINC000770850676   -0.1200
     31 C31         0.2771   -0.8412   47.8363 C.ar    1  ZINC000770850676   -0.1100
     32 C32        -0.6872   -0.2944   47.0106 C.ar    1  ZINC000770850676   -0.1200
     33 C33        -1.4170    0.8016   47.4314 C.ar    1  ZINC000770850676   -0.0900
     34 H34        -5.4038    5.2787   54.1012 H       1  ZINC000770850676    0.4000
     35 H35        -7.5389    4.1502   56.1259 H       1  ZINC000770850676    0.0500
     36 H36        -7.4462    2.8318   54.9336 H       1  ZINC000770850676    0.0500
     37 H37        -7.8465    2.1145   57.2343 H       1  ZINC000770850676    0.3800
     38 H38        -5.3106    5.6633   56.2702 H       1  ZINC000770850676    0.0800
     39 H39        -5.4574    4.3944   57.5097 H       1  ZINC000770850676    0.0900
     40 H40        -3.4094    2.5709   56.2138 H       1  ZINC000770850676    0.3700
     41 H41        -4.4793    6.3646   54.8779 H       1  ZINC000770850676    0.1200
     42 H42        -3.4946    7.0898   52.7407 H       1  ZINC000770850676    0.1200
     43 H43        -1.3592    6.1283   51.9799 H       1  ZINC000770850676    0.1200
     44 H44        -0.2080    4.4425   53.3567 H       1  ZINC000770850676    0.1200
     45 H45        -1.1903    3.7207   55.4961 H       1  ZINC000770850676    0.1200
     46 H46        -7.7174    3.7974   51.6761 H       1  ZINC000770850676    0.0800
     47 H47        -7.3140    5.5174   51.3625 H       1  ZINC000770850676    0.1000
     48 H48        -7.8752    3.8600   49.2740 H       1  ZINC000770850676    0.0900
     49 H49        -6.5328    5.0441   49.1316 H       1  ZINC000770850676    0.0800
     50 H50        -6.3861    2.0724   49.8806 H       1  ZINC000770850676    0.0700
     51 H51        -5.3890    2.9672   48.6931 H       1  ZINC000770850676    0.0900
     52 H52        -2.2561    3.1512   48.2659 H       1  ZINC000770850676    0.0800
     53 H53        -1.3585    3.1585   49.8030 H       1  ZINC000770850676    0.0800
     54 H54        -0.0269    1.2402   50.4733 H       1  ZINC000770850676    0.1200
     55 H55         1.2680   -0.7166   49.7266 H       1  ZINC000770850676    0.1300
     56 H56         0.8455   -1.6991   47.5086 H       1  ZINC000770850676    0.1300
     57 H57        -0.8724   -0.7252   46.0377 H       1  ZINC000770850676    0.1300
     58 H58        -2.1704    1.2288   46.7863 H       1  ZINC000770850676    0.1200
@<TRIPOS>BOND
     1     1     2    2
     2     2     3   am
     3     2    18    1
     4     3     4    1
     5     3    34    1
     6     4     5    1
     7     4     6    1
     8     4     8    1
     9     6     7    1
    10     6    35    1
    11     6    36    1
    12     7    37    1
    13     8     9    1
    14     8    38    1
    15     8    39    1
    16     9    10    1
    17     9    11    1
    18     9    12    1
    19    11    40    1
    20    12    17   ar
    21    12    13   ar
    22    13    14   ar
    23    13    41    1
    24    14    15   ar
    25    14    42    1
    26    15    16   ar
    27    15    43    1
    28    16    17   ar
    29    16    44    1
    30    17    45    1
    31    18    19    1
    32    18    23    1
    33    18    20    1
    34    20    21    1
    35    20    46    1
    36    20    47    1
    37    21    22    1
    38    21    48    1
    39    21    49    1
    40    22    23    1
    41    22    50    1
    42    22    51    1
    43    23    24   am
    44    24    25    2
    45    24    26    1
    46    26    27    1
    47    27    28    1
    48    27    52    1
    49    27    53    1
    50    28    33   ar
    51    28    29   ar
    52    29    30   ar
    53    29    54    1
    54    30    31   ar
    55    30    55    1
    56    31    32   ar
    57    31    56    1
    58    32    33   ar
    59    32    57    1
    60    33    58    1
@<TRIPOS>SUBSTRUCTURE
     1 ZINC000770850676        1 TEMP              0 ****  ****    0 ROOT


##########                                Name:    ZINC000892389374
##########                DOCK_Rotatable_Bonds:                   6
##########                         Heavy_Atoms:                  25
##########                    Molecular_Weight:             371.383
##########                DOCK_Rotatable_Bonds:                   6
##########                       Formal_Charge:          -0.0199998
##########                     HBond_Acceptors:                   9
##########                        HBond_Donors:                   1
##########                         Heavy_Atoms:                  25
##########                          Grid_Score:          -33.671997
##########                     Grid_vdw_energy:          -33.574375
##########                      Grid_es_energy:           -0.097621
##########           Internal_energy_repulsive:           11.378725

@<TRIPOS>MOLECULE
ZINC000892389374
 41 43 1 0 0
SMALL
USER_CHARGES


@<TRIPOS>ATOM
      1 C1         -3.1869    4.2020   52.2049 C.3     1  ZINC000892389374   -0.1000
      2 C2         -2.7145    3.2735   51.1159 C.ar    1  ZINC000892389374   -0.1800
      3 C3         -1.3789    3.2450   50.7647 C.ar    1  ZINC000892389374   -0.0400
      4 C4         -0.9417    2.3947   49.7671 C.ar    1  ZINC000892389374   -0.2100
      5 C5         -1.8447    1.5660   49.1135 C.ar    1  ZINC000892389374    0.2200
      6 N6         -1.4009    0.7053   48.1031 N.am    1  ZINC000892389374   -0.5700
      7 C7         -1.2975    1.0436   46.6753 C.3     1  ZINC000892389374    0.0600
      8 C8         -0.7636   -0.2494   46.0295 C.3     1  ZINC000892389374    0.0400
      9 O9         -0.6234   -1.1711   47.1491 O.3     1  ZINC000892389374   -0.3200
     10 C10        -0.9953   -0.5597   48.2795 C.2     1  ZINC000892389374    0.6400
     11 O11        -0.9752   -1.1043   49.3656 O.2     1  ZINC000892389374   -0.5000
     12 C12        -3.1870    1.5919   49.4635 C.ar    1  ZINC000892389374   -0.2300
     13 C13        -3.6223    2.4427   50.4698 C.ar    1  ZINC000892389374    0.2400
     14 N14        -4.9726    2.4720   50.8252 N.pl3   1  ZINC000892389374   -0.7400
     15 C15        -5.3868    2.0480   52.1649 C.3     1  ZINC000892389374    0.2000
     16 C16        -6.5814    1.1359   52.0562 C.2     1  ZINC000892389374   -0.2400
     17 C17        -6.5832   -0.1002   51.5481 C.2     1  ZINC000892389374    0.0600
     18 N18        -7.7583   -0.6964   51.5651 N.2     1  ZINC000892389374   -0.4500
     19 C19        -8.7479   -0.0321   52.0592 C.2     1  ZINC000892389374    0.0200
     20 C20       -10.1621   -0.5420   52.1649 C.3     1  ZINC000892389374   -0.0900
     21 C21       -10.9515    0.3408   53.1335 C.3     1  ZINC000892389374    0.4600
     22 F22       -11.1151    1.6137   52.5768 F       1  ZINC000892389374   -0.1800
     23 F23       -12.2067   -0.2306   53.3679 F       1  ZINC000892389374   -0.1800
     24 F24       -10.2543    0.4465   54.3419 F       1  ZINC000892389374   -0.1700
     25 S25        -8.2210    1.5077   52.5835 S.3     1  ZINC000892389374    0.1900
     26 H26        -3.1281    3.6932   53.1670 H       1  ZINC000892389374    0.0700
     27 H27        -2.5553    5.0902   52.2245 H       1  ZINC000892389374    0.0700
     28 H28        -4.2189    4.4942   52.0109 H       1  ZINC000892389374    0.0600
     29 H29        -0.6748    3.8888   51.2708 H       1  ZINC000892389374    0.1300
     30 H30         0.1033    2.3748   49.4948 H       1  ZINC000892389374    0.1200
     31 H31        -2.2770    1.2977   46.2703 H       1  ZINC000892389374    0.1000
     32 H32        -0.5958    1.8642   46.5262 H       1  ZINC000892389374    0.1000
     33 H33        -1.4777   -0.6367   45.3028 H       1  ZINC000892389374    0.1100
     34 H34         0.2031   -0.0704   45.5587 H       1  ZINC000892389374    0.1100
     35 H35        -3.8911    0.9487   48.9565 H       1  ZINC000892389374    0.1600
     36 H36        -5.6362    2.7732   50.1850 H       1  ZINC000892389374    0.4000
     37 H37        -4.5666    1.5167   52.6476 H       1  ZINC000892389374    0.0900
     38 H38        -5.6512    2.9238   52.7577 H       1  ZINC000892389374    0.0800
     39 H39        -5.6944   -0.5718   51.1557 H       1  ZINC000892389374    0.1800
     40 H40       -10.6327   -0.5142   51.1821 H       1  ZINC000892389374    0.1300
     41 H41       -10.1520   -1.5676   52.5339 H       1  ZINC000892389374    0.1400
@<TRIPOS>BOND
     1     1     2    1
     2     1    26    1
     3     1    27    1
     4     1    28    1
     5     2    13   ar
     6     2     3   ar
     7     3     4   ar
     8     3    29    1
     9     4     5   ar
    10     4    30    1
    11     5     6    1
    12     5    12   ar
    13     6    10   am
    14     6     7    1
    15     7     8    1
    16     7    31    1
    17     7    32    1
    18     8     9    1
    19     8    33    1
    20     8    34    1
    21     9    10    1
    22    10    11    2
    23    12    13   ar
    24    12    35    1
    25    13    14    1
    26    14    15    1
    27    14    36    1
    28    15    16    1
    29    15    37    1
    30    15    38    1
    31    16    25    1
    32    16    17    2
    33    17    18    1
    34    17    39    1
    35    18    19    2
    36    19    20    1
    37    19    25    1
    38    20    21    1
    39    20    40    1
    40    20    41    1
    41    21    22    1
    42    21    23    1
    43    21    24    1
@<TRIPOS>SUBSTRUCTURE
     1 ZINC000892389374        1 TEMP              0 ****  ****    0 ROOT


##########                                Name:    ZINC000482540246
##########                DOCK_Rotatable_Bonds:                  10
##########                         Heavy_Atoms:                  30
##########                    Molecular_Weight:              409.46
##########                DOCK_Rotatable_Bonds:                  10
##########                       Formal_Charge:         2.83122e-07
##########                     HBond_Acceptors:                   7
##########                        HBond_Donors:                   2
##########                         Heavy_Atoms:                  30
##########                          Grid_Score:          -33.658066
##########                     Grid_vdw_energy:          -32.387203
##########                      Grid_es_energy:           -1.270861
##########           Internal_energy_repulsive:           20.713608

@<TRIPOS>MOLECULE
ZINC000482540246
 54 56 1 0 0
SMALL
USER_CHARGES


@<TRIPOS>ATOM
      1 C1        -16.5415   -2.4480   56.7360 C.3     1  ZINC000482540246    0.0400
      2 O2        -16.2808   -2.7425   58.1099 O.3     1  ZINC000482540246   -0.3100
      3 C3        -14.9961   -2.6291   58.5311 C.ar    1  ZINC000482540246    0.3300
      4 C4        -14.0175   -2.1975   57.6454 C.ar    1  ZINC000482540246   -0.1800
      5 C5        -12.7106   -2.0861   58.0876 C.ar    1  ZINC000482540246   -0.0100
      6 C6        -11.6194   -1.6210   57.1580 C.3     1  ZINC000482540246    0.2000
      7 H7        -11.0961   -2.4858   56.7505 H       1  ZINC000482540246    0.1000
      8 C8        -10.6313   -0.7440   57.9298 C.3     1  ZINC000482540246   -0.1600
      9 N9        -12.2083   -0.8458   56.0632 N.am    1  ZINC000482540246   -0.7400
     10 C10       -11.6146   -0.8301   54.8533 C.2     1  ZINC000482540246    0.7100
     11 O11       -10.5893   -1.4579   54.6709 O.2     1  ZINC000482540246   -0.5800
     12 N12       -12.1571   -0.1183   53.8456 N.am    1  ZINC000482540246   -0.7400
     13 C13       -11.5127   -0.1026   52.5300 C.3     1  ZINC000482540246    0.2100
     14 H14       -11.0899   -1.0852   52.3207 H       1  ZINC000482540246    0.1200
     15 C15       -10.3976    0.9449   52.5209 C.3     1  ZINC000482540246    0.0500
     16 O16        -9.1379    0.3016   52.7245 O.3     1  ZINC000482540246   -0.3000
     17 C17        -8.0320    0.9554   52.2798 C.ar    1  ZINC000482540246    0.1000
     18 C18        -7.8577    2.3002   52.5672 C.ar    1  ZINC000482540246   -0.1800
     19 C19        -6.7323    2.9628   52.1145 C.ar    1  ZINC000482540246   -0.0900
     20 C20        -5.7800    2.2865   51.3756 C.ar    1  ZINC000482540246   -0.1300
     21 C21        -5.9501    0.9447   51.0862 C.ar    1  ZINC000482540246   -0.1200
     22 C22        -7.0713    0.2754   51.5414 C.ar    1  ZINC000482540246    0.0700
     23 F23        -7.2378   -1.0353   51.2589 F       1  ZINC000482540246   -0.1300
     24 C24       -12.5327    0.2404   51.4750 C.ar    1  ZINC000482540246   -0.1000
     25 C25       -13.6384    1.0020   51.8044 C.ar    1  ZINC000482540246   -0.0800
     26 C26       -14.5740    1.3166   50.8366 C.ar    1  ZINC000482540246   -0.1200
     27 C27       -14.4038    0.8700   49.5395 C.ar    1  ZINC000482540246   -0.1200
     28 C28       -13.2978    0.1093   49.2100 C.ar    1  ZINC000482540246   -0.1200
     29 C29       -12.3598   -0.2017   50.1768 C.ar    1  ZINC000482540246   -0.1000
     30 C30       -12.4281   -2.4122   59.4066 C.ar    1  ZINC000482540246   -0.2100
     31 C31       -13.4514   -2.8347   60.2321 C.ar    1  ZINC000482540246    0.1500
     32 N32       -14.6886   -2.9257   59.7830 N.ar    1  ZINC000482540246   -0.5400
     33 H33       -17.6044   -2.5774   56.5320 H       1  ZINC000482540246    0.1000
     34 H34       -16.2536   -1.4181   56.5243 H       1  ZINC000482540246    0.0600
     35 H35       -15.9652   -3.1236   56.1039 H       1  ZINC000482540246    0.0600
     36 H36       -14.2727   -1.9523   56.6249 H       1  ZINC000482540246    0.1500
     37 H37       -11.1547    0.1208   58.3373 H       1  ZINC000482540246    0.0600
     38 H38       -10.1933   -1.3208   58.7444 H       1  ZINC000482540246    0.0700
     39 H39        -9.8422   -0.4076   57.2574 H       1  ZINC000482540246    0.0700
     40 H40       -13.0254   -0.3440   56.2089 H       1  ZINC000482540246    0.4000
     41 H41       -12.9743    0.3835   53.9913 H       1  ZINC000482540246    0.4000
     42 H42       -10.3913    1.4604   51.5604 H       1  ZINC000482540246    0.0800
     43 H43       -10.5703    1.6665   53.3194 H       1  ZINC000482540246    0.0800
     44 H44        -8.6012    2.8301   53.1441 H       1  ZINC000482540246    0.1400
     45 H45        -6.5970    4.0108   52.3382 H       1  ZINC000482540246    0.1300
     46 H46        -4.9017    2.8067   51.0232 H       1  ZINC000482540246    0.1400
     47 H47        -5.2047    0.4186   50.5082 H       1  ZINC000482540246    0.1400
     48 H48       -13.7714    1.3508   52.8178 H       1  ZINC000482540246    0.1200
     49 H49       -15.4383    1.9110   51.0942 H       1  ZINC000482540246    0.1200
     50 H50       -15.1352    1.1153   48.7837 H       1  ZINC000482540246    0.1200
     51 H51       -13.1649   -0.2399   48.1967 H       1  ZINC000482540246    0.1200
     52 H52       -11.4956   -0.7961   49.9194 H       1  ZINC000482540246    0.1200
     53 H53       -11.4188   -2.3365   59.7834 H       1  ZINC000482540246    0.1400
     54 H54       -13.2369   -3.0895   61.2594 H       1  ZINC000482540246    0.1600
@<TRIPOS>BOND
     1     1     2    1
     2     1    33    1
     3     1    34    1
     4     1    35    1
     5     2     3    1
     6     3    32   ar
     7     3     4   ar
     8     4     5   ar
     9     4    36    1
    10     5     6    1
    11     5    30   ar
    12     6     7    1
    13     6     8    1
    14     6     9    1
    15     8    37    1
    16     8    38    1
    17     8    39    1
    18     9    10   am
    19     9    40    1
    20    10    11    2
    21    10    12   am
    22    12    13    1
    23    12    41    1
    24    13    14    1
    25    13    15    1
    26    13    24    1
    27    15    16    1
    28    15    42    1
    29    15    43    1
    30    16    17    1
    31    17    22   ar
    32    17    18   ar
    33    18    19   ar
    34    18    44    1
    35    19    20   ar
    36    19    45    1
    37    20    21   ar
    38    20    46    1
    39    21    22   ar
    40    21    47    1
    41    22    23    1
    42    24    29   ar
    43    24    25   ar
    44    25    26   ar
    45    25    48    1
    46    26    27   ar
    47    26    49    1
    48    27    28   ar
    49    27    50    1
    50    28    29   ar
    51    28    51    1
    52    29    52    1
    53    30    31   ar
    54    30    53    1
    55    31    32   ar
    56    31    54    1
@<TRIPOS>SUBSTRUCTURE
     1 ZINC000482540246        1 TEMP              0 ****  ****    0 ROOT


##########                                Name:    ZINC000847397179
##########                DOCK_Rotatable_Bonds:                   9
##########                         Heavy_Atoms:                  25
##########                    Molecular_Weight:             350.461
##########                DOCK_Rotatable_Bonds:                   9
##########                       Formal_Charge:          0.00999979
##########                     HBond_Acceptors:                   7
##########                        HBond_Donors:                   2
##########                         Heavy_Atoms:                  25
##########                          Grid_Score:          -33.622547
##########                     Grid_vdw_energy:          -33.468903
##########                      Grid_es_energy:           -0.153644
##########           Internal_energy_repulsive:           82.746506

@<TRIPOS>MOLECULE
ZINC000847397179
 55 56 1 0 0
SMALL
USER_CHARGES


@<TRIPOS>ATOM
      1 C1         -5.3695    3.7123   51.4162 C.3     1  ZINC000847397179   -0.1500
      2 C2         -5.5183    2.5556   50.4259 C.3     1  ZINC000847397179   -0.1000
      3 H3         -6.4997    2.6051   49.9543 H       1  ZINC000847397179    0.0900
      4 C4         -5.3763    1.2261   51.1695 C.3     1  ZINC000847397179   -0.0200
      5 C5         -6.7353    0.7528   51.6165 C.2     1  ZINC000847397179    0.0100
      6 C6         -7.2466   -0.4784   51.4260 C.2     1  ZINC000847397179   -0.0500
      7 N7         -8.4958   -0.4794   51.9855 N.pl3   1  ZINC000847397179   -0.5700
      8 C8         -8.7046    0.7520   52.4988 C.2     1  ZINC000847397179    0.1800
      9 N9         -7.6455    1.4820   52.2788 N.2     1  ZINC000847397179   -0.4900
     10 C10        -4.4478    2.6576   49.3701 C.2     1  ZINC000847397179    0.5200
     11 O11        -4.6603    3.2761   48.3487 O.2     1  ZINC000847397179   -0.5300
     12 N12        -3.2542    2.0615   49.5609 N.am    1  ZINC000847397179   -0.7400
     13 C13        -2.2141    2.1591   48.5338 C.3     1  ZINC000847397179    0.1200
     14 C14        -1.0351    1.2617   48.9150 C.3     1  ZINC000847397179    0.1500
     15 H15        -0.5701    1.6367   49.8266 H       1  ZINC000847397179    0.0800
     16 C16        -1.5318   -0.1694   49.1431 C.3     1  ZINC000847397179   -0.1300
     17 C17        -0.3327   -1.0887   49.3868 C.3     1  ZINC000847397179   -0.1200
     18 C18         0.5752   -1.0831   48.1548 C.3     1  ZINC000847397179   -0.1400
     19 C19         1.0958    0.3376   47.9155 C.3     1  ZINC000847397179    0.1100
     20 N20        -0.0489    1.2550   47.8259 N.am    1  ZINC000847397179   -0.5900
     21 C21        -0.1937    2.0706   46.7629 C.2     1  ZINC000847397179    0.6500
     22 O22        -1.1445    2.8245   46.7005 O.2     1  ZINC000847397179   -0.5500
     23 O23         0.7153    2.0501   45.7698 O.3     1  ZINC000847397179   -0.3600
     24 C24         1.5529    3.2263   45.6184 C.3     1  ZINC000847397179    0.1400
     25 C25         1.9500    3.7511   46.9996 C.3     1  ZINC000847397179   -0.1800
     26 C26         2.8122    2.8578   44.8314 C.3     1  ZINC000847397179   -0.1400
     27 C27         0.7792    4.3097   44.8643 C.3     1  ZINC000847397179   -0.1800
     28 H28        -4.3882    3.6630   51.8879 H       1  ZINC000847397179    0.0500
     29 H29        -5.4708    4.6596   50.8864 H       1  ZINC000847397179    0.0500
     30 H30        -6.1439    3.6386   52.1799 H       1  ZINC000847397179    0.1000
     31 H31        -4.9332    0.4839   50.5055 H       1  ZINC000847397179    0.0800
     32 H32        -4.7349    1.3635   52.0402 H       1  ZINC000847397179    0.0800
     33 H33        -6.7640   -1.3059   50.9272 H       1  ZINC000847397179    0.1800
     34 H34        -9.1155   -1.2254   52.0089 H       1  ZINC000847397179    0.4200
     35 H35        -9.5983    1.0776   53.0104 H       1  ZINC000847397179    0.2100
     36 H36        -3.0838    1.5679   50.3783 H       1  ZINC000847397179    0.3900
     37 H37        -2.6197    1.8383   47.5744 H       1  ZINC000847397179    0.0800
     38 H38        -1.8746    3.1921   48.4576 H       1  ZINC000847397179    0.1000
     39 H39        -2.1900   -0.1920   50.0117 H       1  ZINC000847397179    0.0800
     40 H40        -2.0780   -0.5096   48.2633 H       1  ZINC000847397179    0.0700
     41 H41         0.2272   -0.7335   50.2520 H       1  ZINC000847397179    0.0700
     42 H42        -0.6849   -2.1031   49.5738 H       1  ZINC000847397179    0.0700
     43 H43         1.4167   -1.7559   48.3199 H       1  ZINC000847397179    0.0800
     44 H44         0.0091   -1.4145   47.2843 H       1  ZINC000847397179    0.0700
     45 H45         1.7367    0.6365   48.7449 H       1  ZINC000847397179    0.0700
     46 H46         1.6617    0.3674   46.9844 H       1  ZINC000847397179    0.0900
     47 H47         2.5012    2.9793   47.5369 H       1  ZINC000847397179    0.0600
     48 H48         2.5787    4.6342   46.8859 H       1  ZINC000847397179    0.0700
     49 H49         1.0528    4.0136   47.5602 H       1  ZINC000847397179    0.0900
     50 H50         2.5294    2.4841   43.8473 H       1  ZINC000847397179    0.0700
     51 H51         3.4410    3.7409   44.7178 H       1  ZINC000847397179    0.0800
     52 H52         3.3635    2.0861   45.3686 H       1  ZINC000847397179    0.0700
     53 H53        -0.1180    4.5723   45.4250 H       1  ZINC000847397179    0.0900
     54 H54         1.4079    5.1928   44.7506 H       1  ZINC000847397179    0.0700
     55 H55         0.4963    3.9359   43.8803 H       1  ZINC000847397179    0.0600
@<TRIPOS>BOND
     1     1     2    1
     2     1    28    1
     3     1    29    1
     4     1    30    1
     5     2     3    1
     6     2     4    1
     7     2    10    1
     8     4     5    1
     9     4    31    1
    10     4    32    1
    11     5     9    1
    12     5     6    2
    13     6     7    1
    14     6    33    1
    15     7     8    1
    16     7    34    1
    17     8     9    2
    18     8    35    1
    19    10    11    2
    20    10    12   am
    21    12    13    1
    22    12    36    1
    23    13    14    1
    24    13    37    1
    25    13    38    1
    26    14    15    1
    27    14    20    1
    28    14    16    1
    29    16    17    1
    30    16    39    1
    31    16    40    1
    32    17    18    1
    33    17    41    1
    34    17    42    1
    35    18    19    1
    36    18    43    1
    37    18    44    1
    38    19    20    1
    39    19    45    1
    40    19    46    1
    41    20    21   am
    42    21    22    2
    43    21    23    1
    44    23    24    1
    45    24    25    1
    46    24    26    1
    47    24    27    1
    48    25    47    1
    49    25    48    1
    50    25    49    1
    51    26    50    1
    52    26    51    1
    53    26    52    1
    54    27    53    1
    55    27    54    1
    56    27    55    1
@<TRIPOS>SUBSTRUCTURE
     1 ZINC000847397179        1 TEMP              0 ****  ****    0 ROOT


##########                                Name:    ZINC000914736341
##########                DOCK_Rotatable_Bonds:                   7
##########                         Heavy_Atoms:                  27
##########                    Molecular_Weight:             384.905
##########                DOCK_Rotatable_Bonds:                   7
##########                       Formal_Charge:                0.02
##########                     HBond_Acceptors:                   5
##########                        HBond_Donors:                   1
##########                         Heavy_Atoms:                  27
##########                          Grid_Score:          -33.604511
##########                     Grid_vdw_energy:          -32.728741
##########                      Grid_es_energy:           -0.875772
##########           Internal_energy_repulsive:           27.637323

@<TRIPOS>MOLECULE
ZINC000914736341
 52 54 1 0 0
SMALL
USER_CHARGES


@<TRIPOS>ATOM
      1 C1         -7.3634    3.6847   53.5288 C.3     1  ZINC000914736341   -0.1400
      2 C2         -8.0972    3.4915   52.2002 C.3     1  ZINC000914736341   -0.0300
      3 C3         -9.2211    4.5230   52.0836 C.3     1  ZINC000914736341   -0.1400
      4 C4         -7.1135    3.6760   51.0429 C.3     1  ZINC000914736341    0.1300
      5 N5         -5.7715    3.2776   51.4745 N.am    1  ZINC000914736341   -0.7200
      6 C6         -4.8583    2.8882   50.5629 C.2     1  ZINC000914736341    0.5300
      7 O7         -5.1481    2.8662   49.3855 O.2     1  ZINC000914736341   -0.5300
      8 C8         -3.4772    2.4801   51.0067 C.3     1  ZINC000914736341   -0.1200
      9 H9         -3.5217    1.6131   51.6659 H       1  ZINC000914736341    0.1200
     10 C10        -2.7450    3.6580   51.6904 C.3     1  ZINC000914736341   -0.1400
     11 C11        -1.3074    3.5113   51.2425 C.2     1  ZINC000914736341    0.5200
     12 O12        -0.3581    4.0563   51.7648 O.2     1  ZINC000914736341   -0.5200
     13 N13        -1.2353    2.6889   50.1817 N.am    1  ZINC000914736341   -0.6100
     14 C14         0.0102    2.3225   49.5031 C.3     1  ZINC000914736341    0.1600
     15 C15        -0.2625    1.2191   48.5136 C.ar    1  ZINC000914736341   -0.1000
     16 C16        -0.1117   -0.1014   48.8920 C.ar    1  ZINC000914736341   -0.0800
     17 C17        -0.3618   -1.1138   47.9843 C.ar    1  ZINC000914736341   -0.1100
     18 C18        -0.7625   -0.8059   46.6978 C.ar    1  ZINC000914736341   -0.1000
     19 C19        -0.9138    0.5146   46.3181 C.ar    1  ZINC000914736341   -0.1100
     20 C20        -0.6696    1.5278   47.2276 C.ar    1  ZINC000914736341   -0.0300
     21 Cl21       -0.8593    3.1865   46.7515 Cl      1  ZINC000914736341   -0.0600
     22 C22        -2.5649    2.2040   49.7910 C.3     1  ZINC000914736341    0.1000
     23 C23        -8.6817    2.1035   52.1462 C.ar    1  ZINC000914736341   -0.0700
     24 C24       -10.0472    1.9235   52.2622 C.ar    1  ZINC000914736341   -0.1200
     25 C25       -10.5833    0.6503   52.2127 C.ar    1  ZINC000914736341   -0.1200
     26 C26        -9.7536   -0.4429   52.0469 C.ar    1  ZINC000914736341   -0.1200
     27 C27        -8.3881   -0.2629   51.9299 C.ar    1  ZINC000914736341   -0.1200
     28 C28        -7.8525    1.0107   51.9751 C.ar    1  ZINC000914736341   -0.1100
     29 H29        -8.0642    3.5533   54.3533 H       1  ZINC000914736341    0.0600
     30 H30        -6.5628    2.9498   53.6118 H       1  ZINC000914736341    0.0600
     31 H31        -6.9407    4.6886   53.5678 H       1  ZINC000914736341    0.0600
     32 H32        -8.7984    5.5269   52.1226 H       1  ZINC000914736341    0.0600
     33 H33        -9.7438    4.3855   51.1370 H       1  ZINC000914736341    0.0600
     34 H34        -9.9219    4.3917   52.9081 H       1  ZINC000914736341    0.0600
     35 H35        -7.4231    3.0572   50.2007 H       1  ZINC000914736341    0.0700
     36 H36        -7.1018    4.7229   50.7396 H       1  ZINC000914736341    0.0700
     37 H37        -5.5400    3.2941   52.4164 H       1  ZINC000914736341    0.4000
     38 H38        -3.1547    4.6098   51.3522 H       1  ZINC000914736341    0.1100
     39 H39        -2.8172    3.5742   52.7748 H       1  ZINC000914736341    0.1100
     40 H40         0.4071    3.1916   48.9781 H       1  ZINC000914736341    0.1000
     41 H41         0.7375    1.9792   50.2388 H       1  ZINC000914736341    0.1000
     42 H42         0.2020   -0.3426   49.8968 H       1  ZINC000914736341    0.1400
     43 H43        -0.2439   -2.1457   48.2805 H       1  ZINC000914736341    0.1300
     44 H44        -0.9571   -1.5972   45.9889 H       1  ZINC000914736341    0.1300
     45 H45        -1.2268    0.7551   45.3128 H       1  ZINC000914736341    0.1400
     46 H46        -2.5295    1.1352   49.5797 H       1  ZINC000914736341    0.1000
     47 H47        -2.9243    2.7500   48.9188 H       1  ZINC000914736341    0.0900
     48 H48       -10.6954    2.7776   52.3919 H       1  ZINC000914736341    0.1300
     49 H49       -11.6502    0.5096   52.3041 H       1  ZINC000914736341    0.1200
     50 H50       -10.1724   -1.4378   52.0089 H       1  ZINC000914736341    0.1200
     51 H51        -7.7400   -1.1170   51.8006 H       1  ZINC000914736341    0.1200
     52 H52        -6.7856    1.1513   51.8837 H       1  ZINC000914736341    0.1200
@<TRIPOS>BOND
     1     1     2    1
     2     1    29    1
     3     1    30    1
     4     1    31    1
     5     2     3    1
     6     2     4    1
     7     2    23    1
     8     3    32    1
     9     3    33    1
    10     3    34    1
    11     4     5    1
    12     4    35    1
    13     4    36    1
    14     5     6   am
    15     5    37    1
    16     6     7    2
    17     6     8    1
    18     8     9    1
    19     8    22    1
    20     8    10    1
    21    10    11    1
    22    10    38    1
    23    10    39    1
    24    11    12    2
    25    11    13   am
    26    13    14    1
    27    13    22    1
    28    14    15    1
    29    14    40    1
    30    14    41    1
    31    15    20   ar
    32    15    16   ar
    33    16    17   ar
    34    16    42    1
    35    17    18   ar
    36    17    43    1
    37    18    19   ar
    38    18    44    1
    39    19    20   ar
    40    19    45    1
    41    20    21    1
    42    22    46    1
    43    22    47    1
    44    23    28   ar
    45    23    24   ar
    46    24    25   ar
    47    24    48    1
    48    25    26   ar
    49    25    49    1
    50    26    27   ar
    51    26    50    1
    52    27    28   ar
    53    27    51    1
    54    28    52    1
@<TRIPOS>SUBSTRUCTURE
     1 ZINC000914736341        1 TEMP              0 ****  ****    0 ROOT


##########                                Name:    ZINC001060733018
##########                DOCK_Rotatable_Bonds:                   7
##########                         Heavy_Atoms:                  24
##########                    Molecular_Weight:             342.429
##########                DOCK_Rotatable_Bonds:                   7
##########                       Formal_Charge:           0.0200001
##########                     HBond_Acceptors:                   6
##########                        HBond_Donors:                   2
##########                         Heavy_Atoms:                  24
##########                          Grid_Score:          -33.596317
##########                     Grid_vdw_energy:          -29.664970
##########                      Grid_es_energy:           -3.931347
##########           Internal_energy_repulsive:            7.479112

@<TRIPOS>MOLECULE
ZINC001060733018
 52 54 1 0 0
SMALL
USER_CHARGES


@<TRIPOS>ATOM
      1 O1        -10.1563    3.0154   51.9096 O.2     1  ZINC001060733018   -0.5000
      2 C2        -10.0303    3.9012   51.0909 C.2     1  ZINC001060733018    0.4700
      3 N3         -8.8819    4.6042   51.0299 N.am    1  ZINC001060733018   -0.7100
      4 C4         -7.7875    4.3010   51.9554 C.3     1  ZINC001060733018    0.1200
      5 C5         -6.8642    3.2547   51.3281 C.3     1  ZINC001060733018   -0.1000
      6 H6         -7.4177    2.3287   51.1720 H       1  ZINC001060733018    0.0800
      7 C7         -6.3458    3.7717   49.9847 C.3     1  ZINC001060733018   -0.1100
      8 C8         -5.4226    2.7252   49.3574 C.3     1  ZINC001060733018   -0.1300
      9 C9         -4.2408    2.4615   50.2928 C.3     1  ZINC001060733018    0.1400
     10 H10        -3.6873    3.3875   50.4489 H       1  ZINC001060733018    0.0900
     11 N11        -3.3568    1.4596   49.6921 N.am    1  ZINC001060733018   -0.7300
     12 C12        -2.4309    1.8337   48.7869 C.2     1  ZINC001060733018    0.5200
     13 O13        -2.3288    3.0001   48.4707 O.2     1  ZINC001060733018   -0.5400
     14 C14        -1.5228    0.8028   48.1678 C.3     1  ZINC001060733018   -0.1000
     15 H15        -2.0778   -0.1219   48.0090 H       1  ZINC001060733018    0.1000
     16 C16        -0.3427    0.5351   49.1032 C.3     1  ZINC001060733018   -0.1100
     17 C17         0.5449   -0.5637   48.5169 C.3     1  ZINC001060733018   -0.1200
     18 C18         1.1329   -0.0881   47.1848 C.3     1  ZINC001060733018   -0.0800
     19 C19        -0.0141    0.3032   46.2484 C.3     1  ZINC001060733018   -0.1300
     20 C20        -0.5685   -0.7738   45.3162 C.3     1  ZINC001060733018   -0.1700
     21 C21         0.2807    0.3665   44.7502 C.3     1  ZINC001060733018   -0.1700
     22 C22        -1.0013    1.3224   46.8245 C.3     1  ZINC001060733018   -0.0600
     23 C23        -4.7592    1.9446   51.6362 C.3     1  ZINC001060733018   -0.1200
     24 C24        -5.6825    2.9910   52.2635 C.3     1  ZINC001060733018   -0.1100
     25 C25       -11.1554    4.2119   50.1377 C.3     1  ZINC001060733018    0.2600
     26 F26       -11.8960    3.0498   49.8960 F       1  ZINC001060733018   -0.1700
     27 F27       -11.9871    5.1864   50.6997 F       1  ZINC001060733018   -0.1900
     28 H28        -8.7802    5.3108   50.3733 H       1  ZINC001060733018    0.4100
     29 H29        -7.2213    5.2100   52.1587 H       1  ZINC001060733018    0.0800
     30 H30        -8.1972    3.9120   52.8876 H       1  ZINC001060733018    0.0800
     31 H31        -7.1877    3.9596   49.3183 H       1  ZINC001060733018    0.0700
     32 H32        -5.7924    4.6977   50.1408 H       1  ZINC001060733018    0.0700
     33 H33        -5.0532    3.0936   48.4004 H       1  ZINC001060733018    0.0700
     34 H34        -5.9760    1.7994   49.2013 H       1  ZINC001060733018    0.0600
     35 H35        -3.4377    0.5269   49.9460 H       1  ZINC001060733018    0.4000
     36 H36         0.2409    1.4482   49.2205 H       1  ZINC001060733018    0.0700
     37 H37        -0.7167    0.2166   50.0762 H       1  ZINC001060733018    0.0700
     38 H38         1.3541   -0.7868   49.2123 H       1  ZINC001060733018    0.0700
     39 H39        -0.0500   -1.4619   48.3515 H       1  ZINC001060733018    0.0700
     40 H40         1.7747    0.7760   47.3567 H       1  ZINC001060733018    0.0700
     41 H41         1.7139   -0.8926   46.7341 H       1  ZINC001060733018    0.0700
     42 H42        -0.1144   -1.7636   45.3643 H       1  ZINC001060733018    0.0900
     43 H43        -1.6381   -0.7566   45.1071 H       1  ZINC001060733018    0.0900
     44 H44        -0.2303    1.1339   44.1687 H       1  ZINC001060733018    0.0900
     45 H45         1.2935    0.1274   44.4260 H       1  ZINC001060733018    0.0900
     46 H46        -1.8353    1.4531   46.1349 H       1  ZINC001060733018    0.0700
     47 H47        -0.4957    2.2765   46.9736 H       1  ZINC001060733018    0.0800
     48 H48        -3.9173    1.7566   52.3025 H       1  ZINC001060733018    0.0700
     49 H49        -5.3127    1.0185   51.4801 H       1  ZINC001060733018    0.0700
     50 H50        -5.1290    3.9168   52.4197 H       1  ZINC001060733018    0.0700
     51 H51        -6.0518    2.6226   53.2206 H       1  ZINC001060733018    0.0700
     52 H52       -10.7442    4.5826   49.1988 H       1  ZINC001060733018    0.1400
@<TRIPOS>BOND
     1     1     2    2
     2     2     3   am
     3     2    25    1
     4     3     4    1
     5     3    28    1
     6     4     5    1
     7     4    29    1
     8     4    30    1
     9     5     6    1
    10     5    24    1
    11     5     7    1
    12     7     8    1
    13     7    31    1
    14     7    32    1
    15     8     9    1
    16     8    33    1
    17     8    34    1
    18     9    10    1
    19     9    11    1
    20     9    23    1
    21    11    12   am
    22    11    35    1
    23    12    13    2
    24    12    14    1
    25    14    15    1
    26    14    22    1
    27    14    16    1
    28    16    17    1
    29    16    36    1
    30    16    37    1
    31    17    18    1
    32    17    38    1
    33    17    39    1
    34    18    19    1
    35    18    40    1
    36    18    41    1
    37    19    21    1
    38    19    20    1
    39    19    22    1
    40    20    21    1
    41    20    42    1
    42    20    43    1
    43    21    44    1
    44    21    45    1
    45    22    46    1
    46    22    47    1
    47    23    24    1
    48    23    48    1
    49    23    49    1
    50    24    50    1
    51    24    51    1
    52    25    26    1
    53    25    27    1
    54    25    52    1
@<TRIPOS>SUBSTRUCTURE
     1 ZINC001060733018        1 TEMP              0 ****  ****    0 ROOT


##########                                Name:    ZINC000523153175
##########                DOCK_Rotatable_Bonds:                   9
##########                         Heavy_Atoms:                  30
##########                    Molecular_Weight:             413.603
##########                DOCK_Rotatable_Bonds:                   9
##########                       Formal_Charge:           0.0499987
##########                     HBond_Acceptors:                   5
##########                        HBond_Donors:                   1
##########                         Heavy_Atoms:                  30
##########                          Grid_Score:          -33.575356
##########                     Grid_vdw_energy:          -32.456982
##########                      Grid_es_energy:           -1.118375
##########           Internal_energy_repulsive:           31.897476

@<TRIPOS>MOLECULE
ZINC000523153175
 69 71 1 0 0
SMALL
USER_CHARGES


@<TRIPOS>ATOM
      1 C1         -8.8654    2.6121   63.6421 C.3     1  ZINC000523153175   -0.1500
      2 C2         -8.4776    1.1325   63.6773 C.3     1  ZINC000523153175   -0.0600
      3 C3         -9.0984    0.4717   64.9098 C.3     1  ZINC000523153175   -0.1400
      4 C4         -8.9847    0.4505   62.4328 C.ar    1  ZINC000523153175   -0.0800
      5 C5         -8.1714   -0.4337   61.7490 C.ar    1  ZINC000523153175   -0.1100
      6 C6         -8.6365   -1.0593   60.6074 C.ar    1  ZINC000523153175   -0.1100
      7 C7         -9.9151   -0.8009   60.1498 C.ar    1  ZINC000523153175   -0.0800
      8 C8        -10.4220   -1.4825   58.9049 C.3     1  ZINC000523153175   -0.0300
      9 H9         -9.6947   -2.2244   58.5752 H       1  ZINC000523153175    0.0800
     10 C10       -11.7533   -2.1729   59.2077 C.3     1  ZINC000523153175   -0.1500
     11 C11       -10.6260   -0.4426   57.8013 C.3     1  ZINC000523153175   -0.1300
     12 C12       -10.9409   -1.1420   56.5042 C.2     1  ZINC000523153175    0.5200
     13 O13       -10.7857   -2.3410   56.4085 O.2     1  ZINC000523153175   -0.5300
     14 N14       -11.3949   -0.4351   55.4503 N.am    1  ZINC000523153175   -0.6200
     15 C15       -11.5827    1.0208   55.5424 C.3     1  ZINC000523153175    0.1100
     16 C16       -10.8686    1.6796   54.3575 C.3     1  ZINC000523153175    0.0400
     17 N17       -11.3389    1.0705   53.1062 N.3     1  ZINC000523153175   -0.5100
     18 C18       -10.8086    1.7885   51.9394 C.3     1  ZINC000523153175    0.0600
     19 H19       -10.7490    1.1078   51.0902 H       1  ZINC000523153175    0.1100
     20 C20       -11.7360    2.9552   51.5937 C.3     1  ZINC000523153175   -0.1800
     21 C21        -9.4334    2.3168   52.2571 C.2     1  ZINC000523153175    0.5200
     22 O22        -9.3061    3.4140   52.7577 O.2     1  ZINC000523153175   -0.5200
     23 N23        -8.3451    1.5698   51.9849 N.am    1  ZINC000523153175   -0.7200
     24 C24        -7.0084    2.0827   52.2953 C.3     1  ZINC000523153175    0.1400
     25 C25        -5.9586    0.9673   52.1122 C.3     1  ZINC000523153175   -0.1300
     26 C26        -5.4152    1.1885   50.6787 C.3     1  ZINC000523153175   -0.1300
     27 C27        -5.3683    2.7326   50.5657 C.3     1  ZINC000523153175   -0.1300
     28 C28        -6.6330    3.2052   51.3120 C.3     1  ZINC000523153175   -0.1300
     29 C29       -10.9963   -0.3567   53.0465 C.3     1  ZINC000523153175    0.0400
     30 C30       -11.7099   -1.0981   54.1758 C.3     1  ZINC000523153175    0.1200
     31 C31       -10.7288    0.0823   60.8343 C.ar    1  ZINC000523153175   -0.1100
     32 C32       -10.2651    0.7049   61.9781 C.ar    1  ZINC000523153175   -0.1200
     33 H33        -8.4987    3.1054   64.5423 H       1  ZINC000523153175    0.0600
     34 H34        -8.4232    3.0827   62.7640 H       1  ZINC000523153175    0.0600
     35 H35        -9.9507    2.7023   63.5948 H       1  ZINC000523153175    0.0600
     36 H36        -7.3924    1.0423   63.7245 H       1  ZINC000523153175    0.0800
     37 H37       -10.1836    0.5619   64.8625 H       1  ZINC000523153175    0.0600
     38 H38        -8.8223   -0.5824   64.9348 H       1  ZINC000523153175    0.0600
     39 H39        -8.7317    0.9650   65.8100 H       1  ZINC000523153175    0.0600
     40 H40        -7.1724   -0.6356   62.1065 H       1  ZINC000523153175    0.1200
     41 H41        -8.0008   -1.7496   60.0727 H       1  ZINC000523153175    0.1200
     42 H42       -12.1200   -2.6658   58.3073 H       1  ZINC000523153175    0.0800
     43 H43       -11.6080   -2.9136   59.9939 H       1  ZINC000523153175    0.0600
     44 H44       -12.4806   -1.4309   59.5374 H       1  ZINC000523153175    0.0500
     45 H45       -11.4531    0.2146   58.0698 H       1  ZINC000523153175    0.0900
     46 H46        -9.7166    0.1468   57.6848 H       1  ZINC000523153175    0.0900
     47 H47       -12.6465    1.2557   55.5055 H       1  ZINC000523153175    0.0800
     48 H48       -11.1563    1.3866   56.4764 H       1  ZINC000523153175    0.0900
     49 H49       -11.0890    2.7471   54.3477 H       1  ZINC000523153175    0.0900
     50 H50        -9.7930    1.5308   54.4525 H       1  ZINC000523153175    0.0400
     51 H51       -11.7955    3.6360   52.4430 H       1  ZINC000523153175    0.0700
     52 H52       -11.3424    3.4879   50.7280 H       1  ZINC000523153175    0.0700
     53 H53       -12.7306    2.5731   51.3639 H       1  ZINC000523153175    0.0700
     54 H54        -8.4469    0.6927   51.5833 H       1  ZINC000523153175    0.4000
     55 H55        -6.9810    2.4579   53.3183 H       1  ZINC000523153175    0.0900
     56 H56        -5.1580    1.0728   52.8443 H       1  ZINC000523153175    0.0700
     57 H57        -6.4262   -0.0140   52.1957 H       1  ZINC000523153175    0.0700
     58 H58        -4.4172    0.7631   50.5740 H       1  ZINC000523153175    0.0700
     59 H59        -6.0955    0.7674   49.9384 H       1  ZINC000523153175    0.0700
     60 H60        -4.4724    3.1233   51.0479 H       1  ZINC000523153175    0.0700
     61 H61        -5.4050    3.0398   49.5205 H       1  ZINC000523153175    0.0700
     62 H62        -7.4454    3.3683   50.6038 H       1  ZINC000523153175    0.0700
     63 H63        -6.4227    4.1249   51.8579 H       1  ZINC000523153175    0.0800
     64 H64       -11.3094   -0.7660   52.0860 H       1  ZINC000523153175    0.1000
     65 H65        -9.9189   -0.4771   53.1598 H       1  ZINC000523153175    0.0400
     66 H66       -11.3702   -2.1334   54.2061 H       1  ZINC000523153175    0.1000
     67 H67       -12.7869   -1.0679   54.0105 H       1  ZINC000523153175    0.0800
     68 H68       -11.7279    0.2839   60.4770 H       1  ZINC000523153175    0.1200
     69 H69       -10.9009    1.3949   62.5130 H       1  ZINC000523153175    0.1200
@<TRIPOS>BOND
     1     1     2    1
     2     1    33    1
     3     1    34    1
     4     1    35    1
     5     2     3    1
     6     2     4    1
     7     2    36    1
     8     3    37    1
     9     3    38    1
    10     3    39    1
    11     4    32   ar
    12     4     5   ar
    13     5     6   ar
    14     5    40    1
    15     6     7   ar
    16     6    41    1
    17     7     8    1
    18     7    31   ar
    19     8     9    1
    20     8    10    1
    21     8    11    1
    22    10    42    1
    23    10    43    1
    24    10    44    1
    25    11    12    1
    26    11    45    1
    27    11    46    1
    28    12    13    2
    29    12    14   am
    30    14    30    1
    31    14    15    1
    32    15    16    1
    33    15    47    1
    34    15    48    1
    35    16    17    1
    36    16    49    1
    37    16    50    1
    38    17    18    1
    39    17    29    1
    40    18    19    1
    41    18    20    1
    42    18    21    1
    43    20    51    1
    44    20    52    1
    45    20    53    1
    46    21    22    2
    47    21    23   am
    48    23    24    1
    49    23    54    1
    50    24    28    1
    51    24    25    1
    52    24    55    1
    53    25    26    1
    54    25    56    1
    55    25    57    1
    56    26    27    1
    57    26    58    1
    58    26    59    1
    59    27    28    1
    60    27    60    1
    61    27    61    1
    62    28    62    1
    63    28    63    1
    64    29    30    1
    65    29    64    1
    66    29    65    1
    67    30    66    1
    68    30    67    1
    69    31    32   ar
    70    31    68    1
    71    32    69    1
@<TRIPOS>SUBSTRUCTURE
     1 ZINC000523153175        1 TEMP              0 ****  ****    0 ROOT


##########                                Name:    ZINC000859496582
##########                DOCK_Rotatable_Bonds:                  10
##########                         Heavy_Atoms:                  26
##########                    Molecular_Weight:             361.438
##########                DOCK_Rotatable_Bonds:                  10
##########                       Formal_Charge:           0.0100006
##########                     HBond_Acceptors:                   6
##########                        HBond_Donors:                   0
##########                         Heavy_Atoms:                  26
##########                          Grid_Score:          -33.483524
##########                     Grid_vdw_energy:          -32.436409
##########                      Grid_es_energy:           -1.047114
##########           Internal_energy_repulsive:           17.647442

@<TRIPOS>MOLECULE
ZINC000859496582
 53 54 1 0 0
SMALL
USER_CHARGES


@<TRIPOS>ATOM
      1 C1         -7.0704    2.1967   52.8603 C.3     1  ZINC000859496582    0.0300
      2 O2         -6.7429    0.8821   52.3379 O.3     1  ZINC000859496582   -0.3600
      3 C3         -7.7706    0.0770   52.0258 C.2     1  ZINC000859496582    0.4600
      4 O4         -7.5605   -1.0168   51.5574 O.2     1  ZINC000859496582   -0.5100
      5 C5         -9.1864    0.5373   52.2596 C.3     1  ZINC000859496582   -0.1100
      6 C6        -10.1015   -0.6805   52.4032 C.3     1  ZINC000859496582   -0.1100
      7 C7        -11.5625   -0.2274   52.3693 C.3     1  ZINC000859496582   -0.1200
      8 C8        -11.9549    0.3318   53.7384 C.3     1  ZINC000859496582    0.0700
      9 O9        -12.2868   -0.7638   54.6316 O.3     1  ZINC000859496582   -0.3500
     10 C10       -12.4648   -0.4611   55.9271 C.2     1  ZINC000859496582    0.4700
     11 O11       -12.2037    0.6476   56.3299 O.2     1  ZINC000859496582   -0.5000
     12 C12       -12.9903   -1.5045   56.8793 C.3     1  ZINC000859496582   -0.1000
     13 H13       -12.2879   -2.3363   56.9313 H       1  ZINC000859496582    0.1200
     14 C14       -14.3465   -2.0115   56.3836 C.3     1  ZINC000859496582   -0.1100
     15 C15       -14.8659   -3.0946   57.3319 C.3     1  ZINC000859496582   -0.1300
     16 C16       -15.0547   -2.4960   58.7294 C.3     1  ZINC000859496582    0.1100
     17 N17       -13.7913   -1.8776   59.1538 N.am    1  ZINC000859496582   -0.6100
     18 C18       -13.2242   -2.2117   60.3298 C.2     1  ZINC000859496582    0.5700
     19 O19       -13.7582   -3.0317   61.0509 O.2     1  ZINC000859496582   -0.5300
     20 C20       -11.9527   -1.5807   60.7430 C.ar    1  ZINC000859496582   -0.1400
     21 C21       -10.7382   -2.0670   60.2565 C.ar    1  ZINC000859496582   -0.0900
     22 C22        -9.5553   -1.4733   60.6456 C.ar    1  ZINC000859496582   -0.1200
     23 C23        -9.5709   -0.3984   61.5167 C.ar    1  ZINC000859496582   -0.0600
     24 C24        -8.2749    0.2448   61.9378 C.3     1  ZINC000859496582   -0.1200
     25 C25       -10.7714    0.0889   62.0023 C.ar    1  ZINC000859496582   -0.1200
     26 C26       -11.9617   -0.4923   61.6169 C.ar    1  ZINC000859496582   -0.0600
     27 C27       -13.1572   -0.8882   58.2718 C.3     1  ZINC000859496582    0.1100
     28 H28        -7.6476    2.0893   53.7787 H       1  ZINC000859496582    0.0600
     29 H29        -6.1512    2.7434   53.0707 H       1  ZINC000859496582    0.1000
     30 H30        -7.6582    2.7443   52.1236 H       1  ZINC000859496582    0.0600
     31 H31        -9.2288    1.1332   53.1712 H       1  ZINC000859496582    0.1100
     32 H32        -9.5161    1.1419   51.4146 H       1  ZINC000859496582    0.1100
     33 H33        -9.9165   -1.3728   51.5819 H       1  ZINC000859496582    0.0800
     34 H34        -9.8974   -1.1785   53.3511 H       1  ZINC000859496582    0.0800
     35 H35       -11.6854    0.5467   51.6119 H       1  ZINC000859496582    0.0800
     36 H36       -12.2008   -1.0772   52.1274 H       1  ZINC000859496582    0.0800
     37 H37       -11.1205    0.8980   54.1523 H       1  ZINC000859496582    0.0700
     38 H38       -12.8196    0.9864   53.6291 H       1  ZINC000859496582    0.0700
     39 H39       -15.0552   -1.1838   56.3546 H       1  ZINC000859496582    0.0800
     40 H40       -14.2346   -2.4285   55.3827 H       1  ZINC000859496582    0.0800
     41 H41       -15.8206   -3.4717   56.9655 H       1  ZINC000859496582    0.0900
     42 H42       -14.1459   -3.9115   57.3803 H       1  ZINC000859496582    0.0700
     43 H43       -15.8398   -1.7405   58.7003 H       1  ZINC000859496582    0.0700
     44 H44       -15.3292   -3.2843   59.4305 H       1  ZINC000859496582    0.1000
     45 H45       -10.7246   -2.9064   59.5771 H       1  ZINC000859496582    0.1300
     46 H46        -8.6149   -1.8487   60.2699 H       1  ZINC000859496582    0.1300
     47 H47        -8.0235    1.0451   61.2419 H       1  ZINC000859496582    0.0800
     48 H48        -8.3828    0.6564   62.9413 H       1  ZINC000859496582    0.0700
     49 H49        -7.4809   -0.5020   61.9349 H       1  ZINC000859496582    0.0700
     50 H50       -10.7768    0.9284   62.6816 H       1  ZINC000859496582    0.1300
     51 H51       -12.8982   -0.1108   61.9965 H       1  ZINC000859496582    0.1300
     52 H52       -12.1803   -0.6157   58.6711 H       1  ZINC000859496582    0.1100
     53 H53       -13.7873   -0.0013   58.2049 H       1  ZINC000859496582    0.0800
@<TRIPOS>BOND
     1     1     2    1
     2     1    28    1
     3     1    29    1
     4     1    30    1
     5     2     3    1
     6     3     4    2
     7     3     5    1
     8     5     6    1
     9     5    31    1
    10     5    32    1
    11     6     7    1
    12     6    33    1
    13     6    34    1
    14     7     8    1
    15     7    35    1
    16     7    36    1
    17     8     9    1
    18     8    37    1
    19     8    38    1
    20     9    10    1
    21    10    11    2
    22    10    12    1
    23    12    13    1
    24    12    27    1
    25    12    14    1
    26    14    15    1
    27    14    39    1
    28    14    40    1
    29    15    16    1
    30    15    41    1
    31    15    42    1
    32    16    17    1
    33    16    43    1
    34    16    44    1
    35    17    18   am
    36    17    27    1
    37    18    19    2
    38    18    20    1
    39    20    26   ar
    40    20    21   ar
    41    21    22   ar
    42    21    45    1
    43    22    23   ar
    44    22    46    1
    45    23    24    1
    46    23    25   ar
    47    24    47    1
    48    24    48    1
    49    24    49    1
    50    25    26   ar
    51    25    50    1
    52    26    51    1
    53    27    52    1
    54    27    53    1
@<TRIPOS>SUBSTRUCTURE
     1 ZINC000859496582        1 TEMP              0 ****  ****    0 ROOT


##########                                Name:    ZINC000668548901
##########                DOCK_Rotatable_Bonds:                   9
##########                         Heavy_Atoms:                  26
##########                    Molecular_Weight:             374.464
##########                DOCK_Rotatable_Bonds:                   9
##########                       Formal_Charge:         3.53903e-07
##########                     HBond_Acceptors:                   8
##########                        HBond_Donors:                   3
##########                         Heavy_Atoms:                  26
##########                          Grid_Score:          -33.440033
##########                     Grid_vdw_energy:          -32.736027
##########                      Grid_es_energy:           -0.704006
##########           Internal_energy_repulsive:           16.416395

@<TRIPOS>MOLECULE
ZINC000668548901
 48 50 1 0 0
SMALL
USER_CHARGES


@<TRIPOS>ATOM
      1 O1         -2.6786    1.9746   50.6687 O.2     1  ZINC000668548901   -0.5700
      2 C2         -3.1805    2.4596   49.6732 C.2     1  ZINC000668548901    0.7100
      3 N3         -4.5143    2.6441   49.6125 N.am    1  ZINC000668548901   -0.6800
      4 C4         -5.3198    2.2731   50.6901 C.ar    1  ZINC000668548901    0.2200
      5 C5         -5.3703    3.0526   51.8469 C.ar    1  ZINC000668548901   -0.1700
      6 C6         -6.1769    2.6556   52.8919 C.ar    1  ZINC000668548901    0.1200
      7 N7         -6.8978    1.5526   52.8114 N.ar    1  ZINC000668548901   -0.4300
      8 C8         -6.8793    0.7835   51.7317 C.ar    1  ZINC000668548901    0.1100
      9 S9         -7.8644   -0.6766   51.6842 S.3     1  ZINC000668548901    0.0900
     10 C10        -9.4728   -0.0832   52.0913 C.ar    1  ZINC000668548901    0.0900
     11 C11        -9.7995    1.2466   51.8458 C.ar    1  ZINC000668548901   -0.1500
     12 C12       -11.0660    1.6990   52.1699 C.ar    1  ZINC000668548901   -0.0700
     13 C13       -11.9665    0.8029   52.7306 C.ar    1  ZINC000668548901   -0.1700
     14 C14       -11.5748   -0.5036   52.9470 C.ar    1  ZINC000668548901    0.1000
     15 N15       -10.3618   -0.9086   52.6233 N.ar    1  ZINC000668548901   -0.4200
     16 C16        -6.0964    1.1204   50.6357 C.ar    1  ZINC000668548901   -0.1800
     17 N17        -2.4026    2.8179   48.6325 N.am    1  ZINC000668548901   -0.7200
     18 C18        -0.9530    2.6174   48.6986 C.3     1  ZINC000668548901    0.1700
     19 H19        -0.6365    2.5944   49.7414 H       1  ZINC000668548901    0.1000
     20 C20        -0.2458    3.7658   47.9761 C.3     1  ZINC000668548901    0.0600
     21 O21        -0.5161    4.9939   48.6549 O.3     1  ZINC000668548901   -0.5700
     22 C22        -0.5903    1.2916   48.0262 C.3     1  ZINC000668548901   -0.1300
     23 H23        -0.9762    1.2828   47.0068 H       1  ZINC000668548901    0.1000
     24 C24        -1.2048    0.1321   48.8163 C.3     1  ZINC000668548901   -0.1200
     25 C25        -0.7710   -1.1917   48.1794 C.3     1  ZINC000668548901   -0.1600
     26 C26         0.7583   -1.2564   48.1471 C.3     1  ZINC000668548901    0.0600
     27 O27         1.2661   -0.1334   47.4240 O.3     1  ZINC000668548901   -0.3800
     28 C28         0.9319    1.1317   47.9985 C.3     1  ZINC000668548901    0.0700
     29 H29        -4.9142    3.0347   48.8199 H       1  ZINC000668548901    0.4100
     30 H30        -4.7837    3.9563   51.9226 H       1  ZINC000668548901    0.1500
     31 H31        -6.2196    3.2553   53.7891 H       1  ZINC000668548901    0.1600
     32 H32        -9.0743    1.9167   51.4085 H       1  ZINC000668548901    0.1400
     33 H33       -11.3480    2.7261   51.9912 H       1  ZINC000668548901    0.1400
     34 H34       -12.9629    1.1246   52.9953 H       1  ZINC000668548901    0.1400
     35 H35       -12.2719   -1.2036   53.3832 H       1  ZINC000668548901    0.1600
     36 H36        -6.0834    0.4920   49.7574 H       1  ZINC000668548901    0.1400
     37 H37        -2.8026    3.2085   47.8399 H       1  ZINC000668548901    0.4000
     38 H38         0.8289    3.5835   47.9689 H       1  ZINC000668548901    0.0500
     39 H39        -0.6104    3.8294   46.9509 H       1  ZINC000668548901    0.0600
     40 H40        -1.4575    5.1987   48.7376 H       1  ZINC000668548901    0.3800
     41 H41        -0.8585    0.1706   49.8491 H       1  ZINC000668548901    0.0700
     42 H42        -2.2917    0.2097   48.7916 H       1  ZINC000668548901    0.0700
     43 H43        -1.1584   -2.0233   48.7679 H       1  ZINC000668548901    0.0800
     44 H44        -1.1596   -1.2515   47.1628 H       1  ZINC000668548901    0.0700
     45 H45         1.1445   -1.2375   49.1662 H       1  ZINC000668548901    0.0500
     46 H46         1.0728   -2.1775   47.6561 H       1  ZINC000668548901    0.1000
     47 H47         1.3720    1.9299   47.4008 H       1  ZINC000668548901    0.1000
     48 H48         1.3200    1.1829   49.0157 H       1  ZINC000668548901    0.0500
@<TRIPOS>BOND
     1     1     2    2
     2     2     3   am
     3     2    17   am
     4     3     4    1
     5     3    29    1
     6     4    16   ar
     7     4     5   ar
     8     5     6   ar
     9     5    30    1
    10     6     7   ar
    11     6    31    1
    12     7     8   ar
    13     8     9    1
    14     8    16   ar
    15     9    10    1
    16    10    15   ar
    17    10    11   ar
    18    11    12   ar
    19    11    32    1
    20    12    13   ar
    21    12    33    1
    22    13    14   ar
    23    13    34    1
    24    14    15   ar
    25    14    35    1
    26    16    36    1
    27    17    18    1
    28    17    37    1
    29    18    19    1
    30    18    20    1
    31    18    22    1
    32    20    21    1
    33    20    38    1
    34    20    39    1
    35    21    40    1
    36    22    23    1
    37    22    28    1
    38    22    24    1
    39    24    25    1
    40    24    41    1
    41    24    42    1
    42    25    26    1
    43    25    43    1
    44    25    44    1
    45    26    27    1
    46    26    45    1
    47    26    46    1
    48    27    28    1
    49    28    47    1
    50    28    48    1
@<TRIPOS>SUBSTRUCTURE
     1 ZINC000668548901        1 TEMP              0 ****  ****    0 ROOT


##########                                Name:    ZINC000484900616
##########                DOCK_Rotatable_Bonds:                  10
##########                         Heavy_Atoms:                  29
##########                    Molecular_Weight:             415.556
##########                DOCK_Rotatable_Bonds:                  10
##########                       Formal_Charge:        -1.49012e-08
##########                     HBond_Acceptors:                   7
##########                        HBond_Donors:                   1
##########                         Heavy_Atoms:                  29
##########                          Grid_Score:          -33.438808
##########                     Grid_vdw_energy:          -31.083960
##########                      Grid_es_energy:           -2.354848
##########           Internal_energy_repulsive:           15.945907

@<TRIPOS>MOLECULE
ZINC000484900616
 58 60 1 0 0
SMALL
USER_CHARGES


@<TRIPOS>ATOM
      1 C1        -20.3034   -3.5498   57.7753 C.3     1  ZINC000484900616   -0.1500
      2 C2        -18.9877   -2.7942   57.9730 C.3     1  ZINC000484900616    0.0600
      3 O3        -19.0803   -1.4886   57.3446 O.3     1  ZINC000484900616   -0.3400
      4 C4        -17.9964   -0.6915   57.4271 C.2     1  ZINC000484900616    0.5500
      5 O5        -18.1335    0.5087   57.5625 O.2     1  ZINC000484900616   -0.5000
      6 C6        -16.6475   -1.2741   57.3533 C.2     1  ZINC000484900616    0.0200
      7 C7        -16.3353   -2.3180   56.5516 C.2     1  ZINC000484900616   -0.2400
      8 S8        -14.6797   -2.6925   56.7535 S.3     1  ZINC000484900616    0.2900
      9 C9        -14.4996   -1.4354   57.8953 C.2     1  ZINC000484900616    0.0300
     10 C10       -13.2115   -1.0933   58.5989 C.3     1  ZINC000484900616    0.1500
     11 H11       -13.1870   -0.0328   58.8495 H       1  ZINC000484900616    0.0900
     12 C12       -13.0505   -1.9533   59.8772 C.3     1  ZINC000484900616   -0.1200
     13 C13       -11.5114   -1.9401   60.0719 C.3     1  ZINC000484900616   -0.1400
     14 C14       -10.9776   -1.9632   58.6241 C.3     1  ZINC000484900616    0.0500
     15 N15       -12.0526   -1.4493   57.7529 N.3     1  ZINC000484900616   -0.5100
     16 C16       -11.5906   -0.2936   56.9726 C.3     1  ZINC000484900616    0.0300
     17 C17       -11.4918   -0.6764   55.5183 C.2     1  ZINC000484900616    0.5200
     18 O18       -11.3088   -1.8342   55.2072 O.2     1  ZINC000484900616   -0.5100
     19 N19       -11.6066    0.2679   54.5637 N.am    1  ZINC000484900616   -0.7300
     20 C20       -11.5123   -0.1045   53.1499 C.3     1  ZINC000484900616    0.1900
     21 H21       -11.7141   -1.1700   53.0405 H       1  ZINC000484900616    0.1000
     22 C22       -12.5376    0.6944   52.3427 C.3     1  ZINC000484900616   -0.1600
     23 C23       -10.1264    0.1990   52.6419 C.ar    1  ZINC000484900616   -0.1000
     24 C24        -9.7304    1.5102   52.4550 C.ar    1  ZINC000484900616   -0.1100
     25 C25        -8.4590    1.7885   51.9890 C.ar    1  ZINC000484900616   -0.1100
     26 C26        -7.5835    0.7558   51.7102 C.ar    1  ZINC000484900616   -0.0800
     27 C27        -6.1977    1.0592   51.2018 C.3     1  ZINC000484900616   -0.0900
     28 C28        -5.3678    1.6839   52.3251 C.3     1  ZINC000484900616   -0.1500
     29 C29        -7.9790   -0.5554   51.8984 C.ar    1  ZINC000484900616   -0.1100
     30 C30        -9.2491   -0.8336   52.3681 C.ar    1  ZINC000484900616   -0.1000
     31 N31       -15.6147   -0.8180   58.0676 N.2     1  ZINC000484900616   -0.4300
     32 H32       -21.1183   -2.9853   58.2287 H       1  ZINC000484900616    0.0700
     33 H33       -20.4954   -3.6724   56.7093 H       1  ZINC000484900616    0.0700
     34 H34       -20.2340   -4.5300   58.2471 H       1  ZINC000484900616    0.0800
     35 H35       -18.7958   -2.6716   59.0389 H       1  ZINC000484900616    0.0700
     36 H36       -18.1729   -3.3588   57.5198 H       1  ZINC000484900616    0.0700
     37 H37       -17.0197   -2.8308   55.8921 H       1  ZINC000484900616    0.1900
     38 H38       -13.5553   -1.4907   60.7253 H       1  ZINC000484900616    0.0900
     39 H39       -13.4146   -2.9676   59.7139 H       1  ZINC000484900616    0.0800
     40 H40       -11.1956   -1.0314   60.5845 H       1  ZINC000484900616    0.0700
     41 H41       -11.1842   -2.8251   60.6174 H       1  ZINC000484900616    0.0800
     42 H42       -10.0988   -1.3237   58.5426 H       1  ZINC000484900616    0.0600
     43 H43       -10.7237   -2.9842   58.3389 H       1  ZINC000484900616    0.0900
     44 H44       -12.2988    0.5273   57.0849 H       1  ZINC000484900616    0.1100
     45 H45       -10.6108    0.0199   57.3332 H       1  ZINC000484900616    0.0700
     46 H46       -11.7516    1.1941   54.8126 H       1  ZINC000484900616    0.4000
     47 H47       -12.4675    0.4174   51.2908 H       1  ZINC000484900616    0.0700
     48 H48       -13.5401    0.4748   52.7101 H       1  ZINC000484900616    0.0700
     49 H49       -12.3358    1.7599   52.4521 H       1  ZINC000484900616    0.0600
     50 H50       -10.4144    2.3171   52.6728 H       1  ZINC000484900616    0.1200
     51 H51        -8.1499    2.8130   51.8423 H       1  ZINC000484900616    0.1200
     52 H52        -5.7227    0.1363   50.8691 H       1  ZINC000484900616    0.0700
     53 H53        -6.2618    1.7565   50.3664 H       1  ZINC000484900616    0.0700
     54 H54        -5.8429    2.6068   52.6577 H       1  ZINC000484900616    0.0600
     55 H55        -5.3037    0.9867   53.1604 H       1  ZINC000484900616    0.0600
     56 H56        -4.3655    1.9034   51.9573 H       1  ZINC000484900616    0.0600
     57 H57        -7.2949   -1.3623   51.6810 H       1  ZINC000484900616    0.1200
     58 H58        -9.5581   -1.8580   52.5151 H       1  ZINC000484900616    0.1200
@<TRIPOS>BOND
     1     1     2    1
     2     1    32    1
     3     1    33    1
     4     1    34    1
     5     2     3    1
     6     2    35    1
     7     2    36    1
     8     3     4    1
     9     4     5    2
    10     4     6    1
    11     6    31    1
    12     6     7    2
    13     7     8    1
    14     7    37    1
    15     8     9    1
    16     9    10    1
    17     9    31    2
    18    10    11    1
    19    10    15    1
    20    10    12    1
    21    12    13    1
    22    12    38    1
    23    12    39    1
    24    13    14    1
    25    13    40    1
    26    13    41    1
    27    14    15    1
    28    14    42    1
    29    14    43    1
    30    15    16    1
    31    16    17    1
    32    16    44    1
    33    16    45    1
    34    17    18    2
    35    17    19   am
    36    19    20    1
    37    19    46    1
    38    20    21    1
    39    20    22    1
    40    20    23    1
    41    22    47    1
    42    22    48    1
    43    22    49    1
    44    23    30   ar
    45    23    24   ar
    46    24    25   ar
    47    24    50    1
    48    25    26   ar
    49    25    51    1
    50    26    27    1
    51    26    29   ar
    52    27    28    1
    53    27    52    1
    54    27    53    1
    55    28    54    1
    56    28    55    1
    57    28    56    1
    58    29    30   ar
    59    29    57    1
    60    30    58    1
@<TRIPOS>SUBSTRUCTURE
     1 ZINC000484900616        1 TEMP              0 ****  ****    0 ROOT


##########                                Name:    ZINC000132775118
##########                DOCK_Rotatable_Bonds:                   5
##########                         Heavy_Atoms:                  27
##########                    Molecular_Weight:             376.499
##########                DOCK_Rotatable_Bonds:                   5
##########                       Formal_Charge:        -4.76837e-07
##########                     HBond_Acceptors:                   7
##########                        HBond_Donors:                   1
##########                         Heavy_Atoms:                  27
##########                          Grid_Score:          -33.417057
##########                     Grid_vdw_energy:          -32.813572
##########                      Grid_es_energy:           -0.603484
##########           Internal_energy_repulsive:           26.164217

@<TRIPOS>MOLECULE
ZINC000132775118
 59 62 1 0 0
SMALL
USER_CHARGES


@<TRIPOS>ATOM
      1 O1         -1.5114    3.1141   51.7340 O.2     1  ZINC000132775118   -0.5200
      2 C2         -2.1341    2.6738   50.7910 C.2     1  ZINC000132775118    0.5200
      3 C3         -1.4173    1.9207   49.7001 C.3     1  ZINC000132775118    0.0300
      4 N4         -1.1938    2.8128   48.5547 N.3     1  ZINC000132775118   -0.5100
      5 C5         -0.4942    4.0376   48.9695 C.3     1  ZINC000132775118    0.0300
      6 C6         -0.0772    4.8409   47.7714 C.2     1  ZINC000132775118    0.5300
      7 O7          0.2492    5.9972   47.9372 O.2     1  ZINC000132775118   -0.5500
      8 N8         -0.0478    4.3423   46.5280 N.am    1  ZINC000132775118   -0.7200
      9 C9         -0.4878    2.9862   46.2308 C.3     1  ZINC000132775118    0.1500
     10 H10        -1.5165    3.0184   45.8720 H       1  ZINC000132775118    0.0800
     11 C11         0.3885    2.3316   45.1652 C.3     1  ZINC000132775118   -0.1300
     12 C12        -0.1657    0.9371   44.8562 C.3     1  ZINC000132775118   -0.1200
     13 C13        -0.1730    0.0849   46.1255 C.3     1  ZINC000132775118   -0.1200
     14 C14        -1.0281    0.7583   47.2037 C.3     1  ZINC000132775118   -0.1200
     15 C15        -0.4312    2.1344   47.5006 C.3     1  ZINC000132775118    0.0700
     16 H16         0.6010    2.0174   47.8307 H       1  ZINC000132775118    0.0600
     17 N17        -3.4681    2.8531   50.7216 N.am    1  ZINC000132775118   -0.6200
     18 C18        -4.2379    2.3151   49.5917 C.3     1  ZINC000132775118    0.1100
     19 C19        -5.3837    1.4581   50.1391 C.3     1  ZINC000132775118   -0.1200
     20 C20        -6.2100    2.2876   51.1245 C.3     1  ZINC000132775118   -0.1000
     21 C21        -7.3582    1.4583   51.6394 C.2     1  ZINC000132775118    0.5300
     22 O22        -7.3102    0.2483   51.5727 O.2     1  ZINC000132775118   -0.5300
     23 N23        -8.4384    2.0614   52.1741 N.am    1  ZINC000132775118   -0.6200
     24 C24        -9.6206    1.3768   52.7177 C.3     1  ZINC000132775118    0.1000
     25 C25       -10.6040    2.4675   53.1919 C.3     1  ZINC000132775118   -0.1300
     26 C26       -10.1657    3.7104   52.3731 C.3     1  ZINC000132775118   -0.1300
     27 C27        -8.6276    3.5165   52.3167 C.3     1  ZINC000132775118    0.1000
     28 C28        -5.3264    2.7190   52.2973 C.3     1  ZINC000132775118   -0.1200
     29 C29        -4.1810    3.5850   51.7774 C.3     1  ZINC000132775118    0.1200
     30 H30        -0.4582    1.5635   50.0750 H       1  ZINC000132775118    0.0700
     31 H31        -2.0239    1.0712   49.3861 H       1  ZINC000132775118    0.1200
     32 H32        -1.1587    4.6380   49.5909 H       1  ZINC000132775118    0.1300
     33 H33         0.3902    3.7681   49.5468 H       1  ZINC000132775118    0.0700
     34 H34         0.2759    4.9013   45.8043 H       1  ZINC000132775118    0.4000
     35 H35         0.3766    2.9381   44.2596 H       1  ZINC000132775118    0.0800
     36 H36         1.4100    2.2448   45.5353 H       1  ZINC000132775118    0.0700
     37 H37        -1.1831    1.0281   44.4758 H       1  ZINC000132775118    0.0700
     38 H38         0.4593    0.4582   44.1025 H       1  ZINC000132775118    0.0700
     39 H39        -0.5852   -0.8984   45.8988 H       1  ZINC000132775118    0.0700
     40 H40         0.8476   -0.0281   46.4913 H       1  ZINC000132775118    0.0600
     41 H41        -2.0520    0.8632   46.8449 H       1  ZINC000132775118    0.0800
     42 H42        -1.0169    0.1525   48.1097 H       1  ZINC000132775118    0.0700
     43 H43        -4.6454    3.1370   49.0029 H       1  ZINC000132775118    0.0800
     44 H44        -3.5891    1.7016   48.9666 H       1  ZINC000132775118    0.0900
     45 H45        -6.0191    1.1316   49.3160 H       1  ZINC000132775118    0.0800
     46 H46        -4.9741    0.5871   50.6508 H       1  ZINC000132775118    0.0800
     47 H47        -6.5986    3.1714   50.6186 H       1  ZINC000132775118    0.0900
     48 H48       -10.0867    0.7695   51.9417 H       1  ZINC000132775118    0.0700
     49 H49        -9.3305    0.7479   53.5592 H       1  ZINC000132775118    0.0700
     50 H50       -11.6309    2.1910   52.9533 H       1  ZINC000132775118    0.0800
     51 H51       -10.4910    2.6503   54.2606 H       1  ZINC000132775118    0.0800
     52 H52       -10.6018    3.6939   51.3744 H       1  ZINC000132775118    0.0800
     53 H53       -10.4225    4.6324   52.8948 H       1  ZINC000132775118    0.0900
     54 H54        -8.1659    3.8761   53.2363 H       1  ZINC000132775118    0.0700
     55 H55        -8.2112    4.0361   51.4537 H       1  ZINC000132775118    0.0800
     56 H56        -5.9213    3.2899   53.0103 H       1  ZINC000132775118    0.0800
     57 H57        -4.9175    1.8361   52.7887 H       1  ZINC000132775118    0.0800
     58 H58        -3.4950    3.8121   52.5935 H       1  ZINC000132775118    0.1000
     59 H59        -4.5813    4.5114   51.3653 H       1  ZINC000132775118    0.0700
@<TRIPOS>BOND
     1     1     2    2
     2     2     3    1
     3     2    17   am
     4     3     4    1
     5     3    30    1
     6     3    31    1
     7     4    15    1
     8     4     5    1
     9     5     6    1
    10     5    32    1
    11     5    33    1
    12     6     7    2
    13     6     8   am
    14     8     9    1
    15     8    34    1
    16     9    10    1
    17     9    15    1
    18     9    11    1
    19    11    12    1
    20    11    35    1
    21    11    36    1
    22    12    13    1
    23    12    37    1
    24    12    38    1
    25    13    14    1
    26    13    39    1
    27    13    40    1
    28    14    15    1
    29    14    41    1
    30    14    42    1
    31    15    16    1
    32    17    29    1
    33    17    18    1
    34    18    19    1
    35    18    43    1
    36    18    44    1
    37    19    20    1
    38    19    45    1
    39    19    46    1
    40    20    21    1
    41    20    28    1
    42    20    47    1
    43    21    22    2
    44    21    23   am
    45    23    27    1
    46    23    24    1
    47    24    25    1
    48    24    48    1
    49    24    49    1
    50    25    26    1
    51    25    50    1
    52    25    51    1
    53    26    27    1
    54    26    52    1
    55    26    53    1
    56    27    54    1
    57    27    55    1
    58    28    29    1
    59    28    56    1
    60    28    57    1
    61    29    58    1
    62    29    59    1
@<TRIPOS>SUBSTRUCTURE
     1 ZINC000132775118        1 TEMP              0 ****  ****    0 ROOT


##########                                Name:    ZINC000562561773
##########                DOCK_Rotatable_Bonds:                   6
##########                         Heavy_Atoms:                  26
##########                    Molecular_Weight:             371.466
##########                DOCK_Rotatable_Bonds:                   6
##########                       Formal_Charge:           0.0199999
##########                     HBond_Acceptors:                   9
##########                        HBond_Donors:                   0
##########                         Heavy_Atoms:                  26
##########                          Grid_Score:          -33.380646
##########                     Grid_vdw_energy:          -33.005665
##########                      Grid_es_energy:           -0.374980
##########           Internal_energy_repulsive:           10.066813

@<TRIPOS>MOLECULE
ZINC000562561773
 47 50 1 0 0
SMALL
USER_CHARGES


@<TRIPOS>ATOM
      1 C1          1.3905    2.7983   50.5121 C.3     1  ZINC000562561773   -0.1100
      2 C2         -0.1053    2.6177   50.5478 C.ar    1  ZINC000562561773   -0.0400
      3 C3         -0.8696    3.3696   51.4193 C.ar    1  ZINC000562561773   -0.1200
      4 C4         -2.2406    3.2088   51.4570 C.ar    1  ZINC000562561773   -0.0700
      5 C5         -2.8578    2.2863   50.6147 C.ar    1  ZINC000562561773   -0.0300
      6 C6         -4.3314    2.1128   50.6538 C.2     1  ZINC000562561773    0.2200
      7 N7         -5.0495    1.3871   49.8369 N.2     1  ZINC000562561773   -0.3700
      8 O8         -6.2222    1.4566   50.1387 O.3     1  ZINC000562561773    0.0900
      9 C9         -6.3747    2.2516   51.2025 C.2     1  ZINC000562561773    0.1900
     10 C10        -7.6739    2.5945   51.8847 C.3     1  ZINC000562561773   -0.0100
     11 C11        -7.6675    2.0308   53.3070 C.3     1  ZINC000562561773   -0.1200
     12 S12        -9.3527    2.0403   53.9674 S.3     1  ZINC000562561773    0.0600
     13 C13       -10.0608    0.7359   53.0178 C.2     1  ZINC000562561773    0.2100
     14 N14        -9.4223   -0.2943   52.5065 N.2     1  ZINC000562561773   -0.3300
     15 N15       -10.2362   -1.0577   51.8711 N.2     1  ZINC000562561773   -0.0300
     16 N16       -11.4331   -0.5821   51.9273 N.2     1  ZINC000562561773   -0.0700
     17 N17       -11.3656    0.6021   52.6819 N.pl3   1  ZINC000562561773   -0.3600
     18 C18       -12.4689    1.5031   53.0237 C.3     1  ZINC000562561773    0.0800
     19 N19        -5.1820    2.6710   51.5446 N.2     1  ZINC000562561773   -0.4600
     20 C20        -2.0890    1.5279   49.7359 C.ar    1  ZINC000562561773   -0.1100
     21 C21        -0.7131    1.6991   49.7000 C.ar    1  ZINC000562561773    0.0800
     22 N22         0.0627    0.9409   48.8197 N.3     1  ZINC000562561773   -0.4800
     23 C23        -0.0789   -0.5107   49.1005 C.3     1  ZINC000562561773    0.0400
     24 C24         0.3782   -1.1741   47.7771 C.3     1  ZINC000562561773   -0.1200
     25 C25        -0.1807   -0.2170   46.6995 C.3     1  ZINC000562561773   -0.1300
     26 C26        -0.3861    1.1270   47.4227 C.3     1  ZINC000562561773    0.0400
     27 H27         1.6458    3.5719   49.7879 H       1  ZINC000562561773    0.0700
     28 H28         1.7445    3.0941   51.4996 H       1  ZINC000562561773    0.0600
     29 H29         1.8630    1.8596   50.2227 H       1  ZINC000562561773    0.0800
     30 H30        -0.3931    4.0850   52.0734 H       1  ZINC000562561773    0.1400
     31 H31        -2.8345    3.7982   52.1398 H       1  ZINC000562561773    0.1400
     32 H32        -7.7890    3.6777   51.9236 H       1  ZINC000562561773    0.1200
     33 H33        -8.5032    2.1610   51.3258 H       1  ZINC000562561773    0.1300
     34 H34        -7.2892    1.0087   53.2911 H       1  ZINC000562561773    0.1100
     35 H35        -7.0263    2.6456   53.9387 H       1  ZINC000562561773    0.1100
     36 H36       -12.9157    1.1890   53.9670 H       1  ZINC000562561773    0.1000
     37 H37       -12.0902    2.5205   53.1221 H       1  ZINC000562561773    0.1000
     38 H38       -13.2220    1.4704   52.2364 H       1  ZINC000562561773    0.1100
     39 H39        -2.5629    0.8115   49.0815 H       1  ZINC000562561773    0.1300
     40 H40         0.5699   -0.8083   49.9243 H       1  ZINC000562561773    0.0900
     41 H41        -1.1174   -0.7611   49.3176 H       1  ZINC000562561773    0.0500
     42 H42         1.4660   -1.2208   47.7248 H       1  ZINC000562561773    0.0800
     43 H43        -0.0570   -2.1681   47.6734 H       1  ZINC000562561773    0.0700
     44 H44         0.5359   -0.1032   45.8860 H       1  ZINC000562561773    0.0800
     45 H45        -1.1311   -0.5904   46.3180 H       1  ZINC000562561773    0.0700
     46 H46        -1.4410    1.4008   47.4050 H       1  ZINC000562561773    0.0500
     47 H47         0.2097    1.9025   46.9415 H       1  ZINC000562561773    0.0800
@<TRIPOS>BOND
     1     1     2    1
     2     1    27    1
     3     1    28    1
     4     1    29    1
     5     2    21   ar
     6     2     3   ar
     7     3     4   ar
     8     3    30    1
     9     4     5   ar
    10     4    31    1
    11     5     6    1
    12     5    20   ar
    13     6    19    1
    14     6     7    2
    15     7     8    1
    16     8     9    1
    17     9    10    1
    18     9    19    2
    19    10    11    1
    20    10    32    1
    21    10    33    1
    22    11    12    1
    23    11    34    1
    24    11    35    1
    25    12    13    1
    26    13    17    1
    27    13    14    2
    28    14    15    1
    29    15    16    2
    30    16    17    1
    31    17    18    1
    32    18    36    1
    33    18    37    1
    34    18    38    1
    35    20    21   ar
    36    20    39    1
    37    21    22    1
    38    22    26    1
    39    22    23    1
    40    23    24    1
    41    23    40    1
    42    23    41    1
    43    24    25    1
    44    24    42    1
    45    24    43    1
    46    25    26    1
    47    25    44    1
    48    25    45    1
    49    26    46    1
    50    26    47    1
@<TRIPOS>SUBSTRUCTURE
     1 ZINC000562561773        1 TEMP              0 ****  ****    0 ROOT


##########                                Name:    ZINC001119787528
##########                DOCK_Rotatable_Bonds:                   6
##########                         Heavy_Atoms:                  27
##########                    Molecular_Weight:             362.434
##########                DOCK_Rotatable_Bonds:                   6
##########                       Formal_Charge:          -0.0199998
##########                     HBond_Acceptors:                   7
##########                        HBond_Donors:                   1
##########                         Heavy_Atoms:                  27
##########                          Grid_Score:          -33.361671
##########                     Grid_vdw_energy:          -32.618713
##########                      Grid_es_energy:           -0.742957
##########           Internal_energy_repulsive:            9.357650

@<TRIPOS>MOLECULE
ZINC001119787528
 49 52 1 0 0
SMALL
USER_CHARGES


@<TRIPOS>ATOM
      1 C1         -5.8021    2.8001   50.3081 C.3     1  ZINC001119787528   -0.1700
      2 C2         -6.6276    2.7183   51.5937 C.3     1  ZINC001119787528    0.1000
      3 N3         -7.1850    1.3704   51.7312 N.pl3   1  ZINC001119787528   -0.4500
      4 C4         -6.5505    0.2064   51.4611 C.2     1  ZINC001119787528    0.1800
      5 N5         -7.3688   -0.7846   51.7025 N.2     1  ZINC001119787528   -0.4800
      6 C6         -8.5350   -0.2942   52.1280 C.2     1  ZINC001119787528   -0.0200
      7 C7         -8.4380    1.0522   52.1604 C.2     1  ZINC001119787528   -0.0100
      8 C8         -9.5387    1.9841   52.5945 C.3     1  ZINC001119787528   -0.0600
      9 C9        -10.8724    1.2269   52.5542 C.3     1  ZINC001119787528    0.1400
     10 N10       -10.6927   -0.0972   53.1680 N.am    1  ZINC001119787528   -0.6200
     11 C11       -11.3460   -0.4278   54.2996 C.2     1  ZINC001119787528    0.7200
     12 O12       -12.0948    0.3729   54.8251 O.2     1  ZINC001119787528   -0.5600
     13 N13       -11.1693   -1.6460   54.8485 N.am    1  ZINC001119787528   -0.6600
     14 C14       -11.8431   -1.9869   56.0155 C.ar    1  ZINC001119787528    0.4200
     15 C15       -13.2087   -2.2707   55.9881 C.ar    1  ZINC001119787528   -0.2500
     16 C16       -13.8331   -2.6051   57.1748 C.ar    1  ZINC001119787528    0.1600
     17 N17       -13.1205   -2.6450   58.2911 N.ar    1  ZINC001119787528   -0.5300
     18 C18       -11.8313   -2.3713   58.2834 C.ar    1  ZINC001119787528    0.3500
     19 C19       -11.0621   -2.4302   59.5780 C.3     1  ZINC001119787528   -0.0100
     20 C20       -10.2458   -1.1732   59.7347 C.ar    1  ZINC001119787528   -0.0800
     21 C21       -10.8503   -0.0051   60.1600 C.ar    1  ZINC001119787528   -0.1000
     22 C22       -10.1016    1.1480   60.3038 C.ar    1  ZINC001119787528   -0.1200
     23 C23        -8.7483    1.1330   60.0226 C.ar    1  ZINC001119787528   -0.1200
     24 C24        -8.1436   -0.0355   59.5982 C.ar    1  ZINC001119787528   -0.1200
     25 C25        -8.8914   -1.1896   59.4585 C.ar    1  ZINC001119787528   -0.1000
     26 N26       -11.1953   -2.0530   57.1744 N.ar    1  ZINC001119787528   -0.5500
     27 C27        -9.7795   -1.0548   52.5203 C.3     1  ZINC001119787528    0.2000
     28 H28        -5.3874    3.8030   50.2058 H       1  ZINC001119787528    0.0800
     29 H29        -4.9904    2.0738   50.3506 H       1  ZINC001119787528    0.0600
     30 H30        -6.4404    2.5819   49.4520 H       1  ZINC001119787528    0.0600
     31 H31        -5.9892    2.9366   52.4499 H       1  ZINC001119787528    0.0900
     32 H32        -7.4393    3.4446   51.5511 H       1  ZINC001119787528    0.1000
     33 H33        -5.5354    0.1113   51.1046 H       1  ZINC001119787528    0.2100
     34 H34        -9.3454    2.3299   53.6100 H       1  ZINC001119787528    0.0800
     35 H35        -9.5826    2.8377   51.9181 H       1  ZINC001119787528    0.0900
     36 H36       -11.6259    1.7863   53.1085 H       1  ZINC001119787528    0.1100
     37 H37       -11.1929    1.1082   51.5192 H       1  ZINC001119787528    0.0800
     38 H38       -10.5718   -2.2847   54.4291 H       1  ZINC001119787528    0.4200
     39 H39       -13.7641   -2.2297   55.0627 H       1  ZINC001119787528    0.1800
     40 H40       -14.8892   -2.8308   57.1921 H       1  ZINC001119787528    0.1700
     41 H41       -11.7594   -2.5168   60.4113 H       1  ZINC001119787528    0.1000
     42 H42       -10.3990   -3.2951   59.5677 H       1  ZINC001119787528    0.1000
     43 H43       -11.9077    0.0068   60.3796 H       1  ZINC001119787528    0.1300
     44 H44       -10.5741    2.0609   60.6354 H       1  ZINC001119787528    0.1200
     45 H45        -8.1635    2.0340   60.1342 H       1  ZINC001119787528    0.1200
     46 H46        -7.0863   -0.0471   59.3782 H       1  ZINC001119787528    0.1200
     47 H47        -8.4189   -2.1023   59.1269 H       1  ZINC001119787528    0.1200
     48 H48       -10.2497   -1.4712   51.6295 H       1  ZINC001119787528    0.0900
     49 H49        -9.5269   -1.8550   53.2159 H       1  ZINC001119787528    0.0900
@<TRIPOS>BOND
     1     1     2    1
     2     1    28    1
     3     1    29    1
     4     1    30    1
     5     2     3    1
     6     2    31    1
     7     2    32    1
     8     3     7    1
     9     3     4    1
    10     4     5    2
    11     4    33    1
    12     5     6    1
    13     6    27    1
    14     6     7    2
    15     7     8    1
    16     8     9    1
    17     8    34    1
    18     8    35    1
    19     9    10    1
    20     9    36    1
    21     9    37    1
    22    10    11   am
    23    10    27    1
    24    11    12    2
    25    11    13   am
    26    13    14    1
    27    13    38    1
    28    14    26   ar
    29    14    15   ar
    30    15    16   ar
    31    15    39    1
    32    16    17   ar
    33    16    40    1
    34    17    18   ar
    35    18    19    1
    36    18    26   ar
    37    19    20    1
    38    19    41    1
    39    19    42    1
    40    20    25   ar
    41    20    21   ar
    42    21    22   ar
    43    21    43    1
    44    22    23   ar
    45    22    44    1
    46    23    24   ar
    47    23    45    1
    48    24    25   ar
    49    24    46    1
    50    25    47    1
    51    27    48    1
    52    27    49    1
@<TRIPOS>SUBSTRUCTURE
     1 ZINC001119787528        1 TEMP              0 ****  ****    0 ROOT


##########                                Name:    ZINC000492313853
##########                DOCK_Rotatable_Bonds:                   8
##########                         Heavy_Atoms:                  30
##########                    Molecular_Weight:             418.422
##########                DOCK_Rotatable_Bonds:                   8
##########                       Formal_Charge:          -0.0100008
##########                     HBond_Acceptors:                  10
##########                        HBond_Donors:                   2
##########                         Heavy_Atoms:                  30
##########                          Grid_Score:          -33.323833
##########                     Grid_vdw_energy:          -32.860073
##########                      Grid_es_energy:           -0.463759
##########           Internal_energy_repulsive:           16.170252

@<TRIPOS>MOLECULE
ZINC000492313853
 51 53 1 0 0
SMALL
USER_CHARGES


@<TRIPOS>ATOM
      1 C1        -10.8091    1.0391   53.8990 C.3     1  ZINC000492313853    0.0900
      2 N2         -9.8930    0.2161   53.1053 N.pl3   1  ZINC000492313853   -0.6200
      3 C3        -10.1144   -1.2278   52.9951 C.3     1  ZINC000492313853    0.1000
      4 C4         -8.8139    0.8053   52.4567 C.ar    1  ZINC000492313853    0.4100
      5 C5         -7.9062    0.0089   51.7664 C.ar    1  ZINC000492313853   -0.2400
      6 C6         -6.8371    0.6085   51.1250 C.ar    1  ZINC000492313853   -0.0100
      7 C7         -6.7115    1.9893   51.1960 C.ar    1  ZINC000492313853   -0.2300
      8 C8         -5.5630    2.6853   50.5122 C.3     1  ZINC000492313853    0.2000
      9 N9         -4.3502    1.8749   50.6479 N.am    1  ZINC000492313853   -0.7300
     10 C10        -3.4169    1.8906   49.6756 C.2     1  ZINC000492313853    0.7100
     11 O11        -3.5809    2.5785   48.6865 O.2     1  ZINC000492313853   -0.5600
     12 N12        -2.3018    1.1438   49.7998 N.am    1  ZINC000492313853   -0.6600
     13 C13        -1.3365    1.1587   48.7927 C.2     1  ZINC000492313853    0.3300
     14 C14        -0.9450    2.2434   48.0738 C.2     1  ZINC000492313853   -0.2600
     15 C15         0.0451    1.8232   47.1661 C.2     1  ZINC000492313853    0.1200
     16 C16         0.7500    2.6858   46.1855 C.ar    1  ZINC000492313853   -0.0100
     17 C17         0.6083    4.0705   46.2436 C.ar    1  ZINC000492313853   -0.0600
     18 C18         1.2666    4.8682   45.3293 C.ar    1  ZINC000492313853   -0.1200
     19 C19         2.0657    4.2951   44.3570 C.ar    1  ZINC000492313853   -0.0700
     20 C20         2.2102    2.9206   44.2947 C.ar    1  ZINC000492313853   -0.1900
     21 C21         3.0830    2.3033   43.2326 C.3     1  ZINC000492313853    0.5100
     22 F22         2.5911    1.0356   42.9035 F       1  ZINC000492313853   -0.1800
     23 F23         3.0771    3.1158   42.0938 F       1  ZINC000492313853   -0.1800
     24 F24         4.3911    2.1852   43.7145 F       1  ZINC000492313853   -0.1800
     25 C25         1.5607    2.1140   45.2069 C.ar    1  ZINC000492313853   -0.0400
     26 N26         0.2373    0.5326   47.3377 N.2     1  ZINC000492313853   -0.2700
     27 N27        -0.6149    0.0926   48.3583 N.pl3   1  ZINC000492313853   -0.3900
     28 C28        -0.7172   -1.2790   48.8628 C.3     1  ZINC000492313853    0.1000
     29 C29        -7.6498    2.7185   51.8990 C.ar    1  ZINC000492313853    0.1700
     30 N30        -8.6624    2.1203   52.4970 N.ar    1  ZINC000492313853   -0.5400
     31 H31       -10.4527    1.0904   54.9278 H       1  ZINC000492313853    0.0600
     32 H32       -10.8514    2.0440   53.4787 H       1  ZINC000492313853    0.0700
     33 H33       -11.8045    0.5955   53.8809 H       1  ZINC000492313853    0.0700
     34 H34       -11.0010   -1.5042   53.5660 H       1  ZINC000492313853    0.0700
     35 H35       -10.2589   -1.4945   51.9481 H       1  ZINC000492313853    0.0600
     36 H36        -9.2483   -1.7594   53.3892 H       1  ZINC000492313853    0.0600
     37 H37        -8.0340   -1.0629   51.7319 H       1  ZINC000492313853    0.1300
     38 H38        -6.1161    0.0157   50.5817 H       1  ZINC000492313853    0.1400
     39 H39        -5.7955    2.8172   49.4554 H       1  ZINC000492313853    0.0800
     40 H40        -5.4024    3.6599   50.9731 H       1  ZINC000492313853    0.0800
     41 H41        -4.2188    1.3270   51.4375 H       1  ZINC000492313853    0.4000
     42 H42        -2.1705    0.5960   50.5895 H       1  ZINC000492313853    0.4100
     43 H43        -1.3260    3.2484   48.1797 H       1  ZINC000492313853    0.1800
     44 H44        -0.0159    4.5190   47.0023 H       1  ZINC000492313853    0.1400
     45 H45         1.1572    5.9417   45.3733 H       1  ZINC000492313853    0.1400
     46 H46         2.5788    4.9227   43.6434 H       1  ZINC000492313853    0.1400
     47 H47         1.6741    1.0412   45.1575 H       1  ZINC000492313853    0.1400
     48 H48        -0.0132   -1.4179   49.6832 H       1  ZINC000492313853    0.0800
     49 H49        -1.7311   -1.4602   49.2195 H       1  ZINC000492313853    0.0800
     50 H50        -0.4835   -1.9794   48.0609 H       1  ZINC000492313853    0.1000
     51 H51        -7.5560    3.7929   51.9567 H       1  ZINC000492313853    0.1600
@<TRIPOS>BOND
     1     1     2    1
     2     1    31    1
     3     1    32    1
     4     1    33    1
     5     2     3    1
     6     2     4    1
     7     3    34    1
     8     3    35    1
     9     3    36    1
    10     4    30   ar
    11     4     5   ar
    12     5     6   ar
    13     5    37    1
    14     6     7   ar
    15     6    38    1
    16     7     8    1
    17     7    29   ar
    18     8     9    1
    19     8    39    1
    20     8    40    1
    21     9    10   am
    22     9    41    1
    23    10    11    2
    24    10    12   am
    25    12    13    1
    26    12    42    1
    27    13    27    1
    28    13    14    2
    29    14    15    1
    30    14    43    1
    31    15    16    1
    32    15    26    2
    33    16    25   ar
    34    16    17   ar
    35    17    18   ar
    36    17    44    1
    37    18    19   ar
    38    18    45    1
    39    19    20   ar
    40    19    46    1
    41    20    21    1
    42    20    25   ar
    43    21    22    1
    44    21    23    1
    45    21    24    1
    46    25    47    1
    47    26    27    1
    48    27    28    1
    49    28    48    1
    50    28    49    1
    51    28    50    1
    52    29    30   ar
    53    29    51    1
@<TRIPOS>SUBSTRUCTURE
     1 ZINC000492313853        1 TEMP              0 ****  ****    0 ROOT


##########                                Name:    ZINC000011157684
##########                DOCK_Rotatable_Bonds:                   7
##########                         Heavy_Atoms:                  25
##########                    Molecular_Weight:             374.866
##########                DOCK_Rotatable_Bonds:                   7
##########                       Formal_Charge:           0.0400001
##########                     HBond_Acceptors:                   6
##########                        HBond_Donors:                   2
##########                         Heavy_Atoms:                  25
##########                          Grid_Score:          -33.294670
##########                     Grid_vdw_energy:          -32.575573
##########                      Grid_es_energy:           -0.719097
##########           Internal_energy_repulsive:           10.437719

@<TRIPOS>MOLECULE
ZINC000011157684
 41 43 1 0 0
SMALL
USER_CHARGES


@<TRIPOS>ATOM
      1 O1         -3.1466    3.0817   51.3235 O.2     1  ZINC000011157684   -0.5200
      2 C2         -3.7316    2.5102   50.4279 C.2     1  ZINC000011157684    0.5100
      3 C3         -3.1343    2.4671   49.0450 C.3     1  ZINC000011157684    0.1000
      4 N4         -2.6947    1.1022   48.7452 N.pl3   1  ZINC000011157684   -0.7300
      5 C5         -1.7192    0.8803   47.7673 C.ar    1  ZINC000011157684    0.2200
      6 C6         -1.5308    1.8063   46.7506 C.ar    1  ZINC000011157684   -0.1600
      7 C7         -0.5665    1.5857   45.7860 C.ar    1  ZINC000011157684   -0.0900
      8 C8          0.2115    0.4416   45.8321 C.ar    1  ZINC000011157684    0.0500
      9 F9          1.1534    0.2279   44.8873 F       1  ZINC000011157684   -0.1400
     10 C10         0.0263   -0.4841   46.8454 C.ar    1  ZINC000011157684   -0.0900
     11 C11        -0.9332   -0.2652   47.8153 C.ar    1  ZINC000011157684   -0.0900
     12 Cl12       -1.1654   -1.4256   49.0854 Cl      1  ZINC000011157684   -0.0500
     13 N13        -4.9131    1.9089   50.6706 N.am    1  ZINC000011157684   -0.7200
     14 C14        -5.4938    1.9508   52.0149 C.3     1  ZINC000011157684    0.2600
     15 H15        -4.7787    1.5482   52.7324 H       1  ZINC000011157684    0.1200
     16 C16        -6.7538    1.1247   52.0439 C.2     1  ZINC000011157684   -0.1900
     17 C17        -7.9204    1.5193   52.5564 C.2     1  ZINC000011157684   -0.1200
     18 C18        -8.9406    0.5877   52.4694 C.2     1  ZINC000011157684   -0.1300
     19 C19        -8.6025   -0.5634   51.8863 C.2     1  ZINC000011157684   -0.2100
     20 S20        -6.9130   -0.5044   51.4003 S.3     1  ZINC000011157684    0.1100
     21 C21        -5.8196    3.3770   52.3771 C.ar    1  ZINC000011157684   -0.0900
     22 C22        -6.1650    4.2794   51.3885 C.ar    1  ZINC000011157684   -0.1100
     23 C23        -6.4639    5.5875   51.7207 C.ar    1  ZINC000011157684   -0.1100
     24 C24        -6.4180    5.9930   53.0414 C.ar    1  ZINC000011157684   -0.1100
     25 C25        -6.0735    5.0903   54.0300 C.ar    1  ZINC000011157684   -0.1100
     26 C26        -5.7787    3.7812   53.6984 C.ar    1  ZINC000011157684   -0.1000
     27 H27        -3.8834    2.7759   48.3158 H       1  ZINC000011157684    0.1000
     28 H28        -2.2802    3.1427   48.9968 H       1  ZINC000011157684    0.1000
     29 H29        -3.0801    0.3522   49.2248 H       1  ZINC000011157684    0.4200
     30 H30        -2.1378    2.6989   46.7135 H       1  ZINC000011157684    0.1400
     31 H31        -0.4199    2.3062   44.9951 H       1  ZINC000011157684    0.1400
     32 H32         0.6347   -1.3759   46.8796 H       1  ZINC000011157684    0.1500
     33 H33        -5.3790    1.4485   49.9551 H       1  ZINC000011157684    0.4000
     34 H34        -8.0583    2.4917   53.0055 H       1  ZINC000011157684    0.1400
     35 H35        -9.9349    0.7783   52.8455 H       1  ZINC000011157684    0.1400
     36 H36        -9.2656   -1.4018   51.7326 H       1  ZINC000011157684    0.1700
     37 H37        -6.2009    3.9626   50.3567 H       1  ZINC000011157684    0.1200
     38 H38        -6.7331    6.2928   50.9482 H       1  ZINC000011157684    0.1300
     39 H39        -6.6509    7.0153   53.3008 H       1  ZINC000011157684    0.1300
     40 H40        -6.0373    5.4073   55.0618 H       1  ZINC000011157684    0.1300
     41 H41        -5.5097    3.0759   54.4707 H       1  ZINC000011157684    0.1300
@<TRIPOS>BOND
     1     1     2    2
     2     2     3    1
     3     2    13   am
     4     3     4    1
     5     3    27    1
     6     3    28    1
     7     4     5    1
     8     4    29    1
     9     5    11   ar
    10     5     6   ar
    11     6     7   ar
    12     6    30    1
    13     7     8   ar
    14     7    31    1
    15     8     9    1
    16     8    10   ar
    17    10    11   ar
    18    10    32    1
    19    11    12    1
    20    13    14    1
    21    13    33    1
    22    14    15    1
    23    14    16    1
    24    14    21    1
    25    16    20    1
    26    16    17    2
    27    17    18    1
    28    17    34    1
    29    18    19    2
    30    18    35    1
    31    19    20    1
    32    19    36    1
    33    21    26   ar
    34    21    22   ar
    35    22    23   ar
    36    22    37    1
    37    23    24   ar
    38    23    38    1
    39    24    25   ar
    40    24    39    1
    41    25    26   ar
    42    25    40    1
    43    26    41    1
@<TRIPOS>SUBSTRUCTURE
     1 ZINC000011157684        1 TEMP              0 ****  ****    0 ROOT


##########                                Name:    ZINC000949401225
##########                DOCK_Rotatable_Bonds:                   7
##########                         Heavy_Atoms:                  24
##########                    Molecular_Weight:             332.403
##########                DOCK_Rotatable_Bonds:                   7
##########                       Formal_Charge:                0.03
##########                     HBond_Acceptors:                   7
##########                        HBond_Donors:                   1
##########                         Heavy_Atoms:                  24
##########                          Grid_Score:          -33.286728
##########                     Grid_vdw_energy:          -30.170637
##########                      Grid_es_energy:           -3.116091
##########           Internal_energy_repulsive:           11.261464

@<TRIPOS>MOLECULE
ZINC000949401225
 48 50 1 0 0
SMALL
USER_CHARGES


@<TRIPOS>ATOM
      1 C1          0.2765    2.8675   58.0274 C.3     1  ZINC000949401225    0.0700
      2 N2          0.4102    3.3940   56.6669 N.pl3   1  ZINC000949401225   -0.4500
      3 C3          1.5794    3.8199   56.1070 C.2     1  ZINC000949401225   -0.0100
      4 C4          1.3341    4.2363   54.8519 C.2     1  ZINC000949401225   -0.1700
      5 C5         -0.1035    4.0486   54.6287 C.2     1  ZINC000949401225   -0.2400
      6 C6         -0.8568    4.3593   53.4020 C.2     1  ZINC000949401225    0.5900
      7 O7         -0.2980    4.8967   52.4649 O.2     1  ZINC000949401225   -0.5500
      8 N8         -2.1654    4.0480   53.3178 N.am    1  ZINC000949401225   -0.7300
      9 C9         -2.9143    4.3553   52.0968 C.3     1  ZINC000949401225    0.1200
     10 C10        -3.5017    3.0656   51.5203 C.3     1  ZINC000949401225    0.1200
     11 H11        -3.4695    2.2357   52.2263 H       1  ZINC000949401225    0.1000
     12 C12        -4.8770    3.2589   50.8667 C.3     1  ZINC000949401225   -0.1500
     13 C13        -4.3260    2.2679   49.8321 C.3     1  ZINC000949401225    0.1000
     14 N14        -2.9737    2.7244   50.1908 N.am    1  ZINC000949401225   -0.6400
     15 C15        -1.7785    2.7987   49.5723 C.2     1  ZINC000949401225    0.5500
     16 O16        -0.8163    3.2414   50.1632 O.2     1  ZINC000949401225   -0.5200
     17 C17        -1.6378    2.3317   48.1464 C.3     1  ZINC000949401225   -0.1400
     18 C18        -0.5762    1.2324   48.0723 C.3     1  ZINC000949401225    0.1500
     19 H19         0.4153    1.6545   48.2366 H       1  ZINC000949401225    0.0900
     20 C20        -0.8698    0.1343   49.1185 C.3     1  ZINC000949401225   -0.1200
     21 C21        -0.4222   -1.1424   48.3698 C.3     1  ZINC000949401225   -0.1600
     22 C22        -0.5437   -0.7764   46.9069 C.2     1  ZINC000949401225    0.5200
     23 O23        -0.5582   -1.5712   45.9909 O.2     1  ZINC000949401225   -0.5300
     24 N24        -0.6322    0.5593   46.7693 N.am    1  ZINC000949401225   -0.6200
     25 C25        -0.7695    1.2506   45.4850 C.3     1  ZINC000949401225    0.0900
     26 C26        -0.6022    3.5215   55.7880 C.2     1  ZINC000949401225    0.0800
     27 H27         0.4271    1.7881   58.0157 H       1  ZINC000949401225    0.0800
     28 H28         1.0235    3.3316   58.6715 H       1  ZINC000949401225    0.0900
     29 H29        -0.7203    3.0914   58.4072 H       1  ZINC000949401225    0.0900
     30 H30         2.5442    3.8222   56.5923 H       1  ZINC000949401225    0.1700
     31 H31         2.0524    4.6308   54.1486 H       1  ZINC000949401225    0.1500
     32 H32        -2.6113    3.6204   54.0655 H       1  ZINC000949401225    0.4000
     33 H33        -3.7215    5.0494   52.3307 H       1  ZINC000949401225    0.0700
     34 H34        -2.2458    4.8090   51.3649 H       1  ZINC000949401225    0.0900
     35 H35        -5.7097    2.8738   51.4552 H       1  ZINC000949401225    0.1000
     36 H36        -5.0494    4.2621   50.4770 H       1  ZINC000949401225    0.1000
     37 H37        -4.5131    1.2249   50.0876 H       1  ZINC000949401225    0.0900
     38 H38        -4.6084    2.5085   48.8071 H       1  ZINC000949401225    0.0800
     39 H39        -2.5926    1.9390   47.7967 H       1  ZINC000949401225    0.1000
     40 H40        -1.3373    3.1698   47.5176 H       1  ZINC000949401225    0.1000
     41 H41        -0.2764    0.2860   50.0201 H       1  ZINC000949401225    0.1000
     42 H42        -1.9330    0.0953   49.3551 H       1  ZINC000949401225    0.0800
     43 H43         0.6107   -1.3874   48.6172 H       1  ZINC000949401225    0.1100
     44 H44        -1.0813   -1.9766   48.6103 H       1  ZINC000949401225    0.1000
     45 H45        -0.8726    0.5162   44.6862 H       1  ZINC000949401225    0.0800
     46 H46        -1.6531    1.8885   45.5084 H       1  ZINC000949401225    0.0600
     47 H47         0.1151    1.8615   45.3049 H       1  ZINC000949401225    0.0600
     48 H48        -1.6337    3.2583   55.9701 H       1  ZINC000949401225    0.1800
@<TRIPOS>BOND
     1     1     2    1
     2     1    27    1
     3     1    28    1
     4     1    29    1
     5     2    26    1
     6     2     3    1
     7     3     4    2
     8     3    30    1
     9     4     5    1
    10     4    31    1
    11     5     6    1
    12     5    26    2
    13     6     7    2
    14     6     8   am
    15     8     9    1
    16     8    32    1
    17     9    10    1
    18     9    33    1
    19     9    34    1
    20    10    11    1
    21    10    14    1
    22    10    12    1
    23    12    13    1
    24    12    35    1
    25    12    36    1
    26    13    14    1
    27    13    37    1
    28    13    38    1
    29    14    15   am
    30    15    16    2
    31    15    17    1
    32    17    18    1
    33    17    39    1
    34    17    40    1
    35    18    19    1
    36    18    24    1
    37    18    20    1
    38    20    21    1
    39    20    41    1
    40    20    42    1
    41    21    22    1
    42    21    43    1
    43    21    44    1
    44    22    23    2
    45    22    24   am
    46    24    25    1
    47    25    45    1
    48    25    46    1
    49    25    47    1
    50    26    48    1
@<TRIPOS>SUBSTRUCTURE
     1 ZINC000949401225        1 TEMP              0 ****  ****    0 ROOT


##########                                Name:    ZINC000245764166
##########                DOCK_Rotatable_Bonds:                   8
##########                         Heavy_Atoms:                  26
##########                    Molecular_Weight:             359.512
##########                DOCK_Rotatable_Bonds:                   8
##########                       Formal_Charge:          -0.0100008
##########                     HBond_Acceptors:                   5
##########                        HBond_Donors:                   2
##########                         Heavy_Atoms:                  26
##########                          Grid_Score:          -33.273201
##########                     Grid_vdw_energy:          -33.021751
##########                      Grid_es_energy:           -0.251448
##########           Internal_energy_repulsive:           32.544109

@<TRIPOS>MOLECULE
ZINC000245764166
 59 61 1 0 0
SMALL
USER_CHARGES


@<TRIPOS>ATOM
      1 C1         -6.6229    0.1742   51.1377 C.3     1  ZINC000245764166    0.0200
      2 N2         -6.6612    1.5871   51.5380 N.3     1  ZINC000245764166   -0.5300
      3 C3         -7.6048    1.7954   52.6445 C.3     1  ZINC000245764166    0.0600
      4 C4         -8.9852    1.3705   52.2141 C.ar    1  ZINC000245764166   -0.0800
      5 C5         -9.3866    0.0578   52.3777 C.ar    1  ZINC000245764166   -0.1000
      6 C6        -10.6527   -0.3320   51.9830 C.ar    1  ZINC000245764166   -0.1200
      7 C7        -11.5176    0.5909   51.4252 C.ar    1  ZINC000245764166   -0.1200
      8 C8        -11.1165    1.9037   51.2625 C.ar    1  ZINC000245764166   -0.1200
      9 C9         -9.8519    2.2945   51.6611 C.ar    1  ZINC000245764166   -0.1200
     10 C10        -5.3200    2.0706   51.8919 C.3     1  ZINC000245764166    0.0500
     11 C11        -5.0526    3.3988   51.1811 C.3     1  ZINC000245764166    0.1900
     12 C12        -6.0032    3.5405   49.9906 C.3     1  ZINC000245764166   -0.1600
     13 C13        -5.2814    4.5547   52.1569 C.3     1  ZINC000245764166   -0.1500
     14 N14        -3.6672    3.4279   50.7058 N.am    1  ZINC000245764166   -0.7400
     15 C15        -3.2194    2.4659   49.8748 C.2     1  ZINC000245764166    0.7000
     16 O16        -3.9648    1.5731   49.5207 O.2     1  ZINC000245764166   -0.5800
     17 N17        -1.9452    2.4937   49.4362 N.am    1  ZINC000245764166   -0.7500
     18 C18        -1.4581    1.4470   48.5343 C.3     1  ZINC000245764166    0.1800
     19 H19        -2.2074    1.2587   47.7654 H       1  ZINC000245764166    0.0900
     20 C20        -1.2231    0.1664   49.3313 C.3     1  ZINC000245764166   -0.1300
     21 C21        -0.7721   -0.9349   48.3655 C.3     1  ZINC000245764166   -0.1100
     22 C22         0.5652   -0.5195   47.7528 C.3     1  ZINC000245764166   -0.1100
     23 C23         0.4481    0.7926   47.0133 C.3     1  ZINC000245764166    0.0900
     24 H24         1.4408    1.1103   46.6944 H       1  ZINC000245764166    0.0600
     25 O25        -0.4070    0.7157   45.8647 O.3     1  ZINC000245764166   -0.3600
     26 C26        -0.7052    2.0765   45.4946 C.3     1  ZINC000245764166    0.0500
     27 C27        -0.5736    2.9376   46.7672 C.3     1  ZINC000245764166   -0.1500
     28 C28        -0.1623    1.9174   47.8702 C.3     1  ZINC000245764166   -0.1300
     29 H29         0.5511    2.3339   48.5814 H       1  ZINC000245764166    0.1000
     30 H30        -7.6259   -0.1534   50.8646 H       1  ZINC000245764166    0.0800
     31 H31        -5.9569    0.0567   50.2830 H       1  ZINC000245764166    0.0700
     32 H32        -6.2573   -0.4291   51.9688 H       1  ZINC000245764166    0.0200
     33 H33        -7.2935    1.2019   53.5041 H       1  ZINC000245764166    0.0400
     34 H34        -7.6179    2.8507   52.9171 H       1  ZINC000245764166    0.1100
     35 H35        -8.7109   -0.6631   52.8136 H       1  ZINC000245764166    0.1200
     36 H36       -10.9662   -1.3577   52.1101 H       1  ZINC000245764166    0.1200
     37 H37       -12.5066    0.2861   51.1162 H       1  ZINC000245764166    0.1200
     38 H38       -11.7921    2.6247   50.8264 H       1  ZINC000245764166    0.1200
     39 H39        -9.5385    3.3202   51.5340 H       1  ZINC000245764166    0.1200
     40 H40        -5.2592    2.2170   52.9704 H       1  ZINC000245764166    0.0400
     41 H41        -4.5758    1.3367   51.5824 H       1  ZINC000245764166    0.1000
     42 H42        -7.0340    3.5188   50.3443 H       1  ZINC000245764166    0.0700
     43 H43        -5.8127    4.4868   49.4842 H       1  ZINC000245764166    0.0800
     44 H44        -5.8402    2.7170   49.2954 H       1  ZINC000245764166    0.0500
     45 H45        -4.5244    4.5238   52.9406 H       1  ZINC000245764166    0.0600
     46 H46        -5.2115    5.5015   51.6214 H       1  ZINC000245764166    0.0800
     47 H47        -6.2712    4.4623   52.6039 H       1  ZINC000245764166    0.0600
     48 H48        -3.0720    4.1396   50.9891 H       1  ZINC000245764166    0.3900
     49 H49        -1.3509    3.2066   49.7177 H       1  ZINC000245764166    0.3900
     50 H50        -0.4484    0.3375   50.0787 H       1  ZINC000245764166    0.0600
     51 H51        -2.1487   -0.1341   49.8222 H       1  ZINC000245764166    0.0700
     52 H52        -0.6519   -1.8727   48.9081 H       1  ZINC000245764166    0.0700
     53 H53        -1.5146   -1.0588   47.5772 H       1  ZINC000245764166    0.0700
     54 H54         1.3048   -0.4165   48.5468 H       1  ZINC000245764166    0.0800
     55 H55         0.8946   -1.2922   47.0580 H       1  ZINC000245764166    0.0700
     56 H56         0.0035    2.4191   44.7406 H       1  ZINC000245764166    0.0600
     57 H57        -1.7219    2.1409   45.1069 H       1  ZINC000245764166    0.0800
     58 H58         0.2005    3.6941   46.6387 H       1  ZINC000245764166    0.0800
     59 H59        -1.5276    3.4035   47.0139 H       1  ZINC000245764166    0.0800
@<TRIPOS>BOND
     1     1     2    1
     2     1    30    1
     3     1    31    1
     4     1    32    1
     5     2     3    1
     6     2    10    1
     7     3     4    1
     8     3    33    1
     9     3    34    1
    10     4     9   ar
    11     4     5   ar
    12     5     6   ar
    13     5    35    1
    14     6     7   ar
    15     6    36    1
    16     7     8   ar
    17     7    37    1
    18     8     9   ar
    19     8    38    1
    20     9    39    1
    21    10    11    1
    22    10    40    1
    23    10    41    1
    24    11    12    1
    25    11    13    1
    26    11    14    1
    27    12    42    1
    28    12    43    1
    29    12    44    1
    30    13    45    1
    31    13    46    1
    32    13    47    1
    33    14    15   am
    34    14    48    1
    35    15    16    2
    36    15    17   am
    37    17    18    1
    38    17    49    1
    39    18    19    1
    40    18    28    1
    41    18    20    1
    42    20    21    1
    43    20    50    1
    44    20    51    1
    45    21    22    1
    46    21    52    1
    47    21    53    1
    48    22    23    1
    49    22    54    1
    50    22    55    1
    51    23    24    1
    52    23    28    1
    53    23    25    1
    54    25    26    1
    55    26    27    1
    56    26    56    1
    57    26    57    1
    58    27    28    1
    59    27    58    1
    60    27    59    1
    61    28    29    1
@<TRIPOS>SUBSTRUCTURE
     1 ZINC000245764166        1 TEMP              0 ****  ****    0 ROOT


##########                                Name:    ZINC000981048968
##########                DOCK_Rotatable_Bonds:                   7
##########                         Heavy_Atoms:                  25
##########                    Molecular_Weight:             344.414
##########                DOCK_Rotatable_Bonds:                   7
##########                       Formal_Charge:                0.02
##########                     HBond_Acceptors:                   7
##########                        HBond_Donors:                   2
##########                         Heavy_Atoms:                  25
##########                          Grid_Score:          -33.259598
##########                     Grid_vdw_energy:          -32.461826
##########                      Grid_es_energy:           -0.797772
##########           Internal_energy_repulsive:            5.177298

@<TRIPOS>MOLECULE
ZINC000981048968
 49 52 1 0 0
SMALL
USER_CHARGES


@<TRIPOS>ATOM
      1 C1        -13.9476    1.3559   51.5691 C.3     1  ZINC000981048968   -0.0800
      2 C2        -12.5548    0.8000   51.7180 C.2     1  ZINC000981048968   -0.0100
      3 C3        -11.4292    1.5279   51.7796 C.2     1  ZINC000981048968   -0.1600
      4 C4        -10.3306    0.5617   51.9242 C.2     1  ZINC000981048968   -0.2300
      5 C5         -8.8915    0.8591   52.0356 C.2     1  ZINC000981048968    0.5900
      6 O6         -8.0840   -0.0494   52.0744 O.2     1  ZINC000981048968   -0.5300
      7 N7         -8.4703    2.1381   52.0947 N.am    1  ZINC000981048968   -0.7300
      8 C8         -7.0399    2.4337   52.2073 C.3     1  ZINC000981048968    0.1500
      9 H9         -6.5883    1.7691   52.9438 H       1  ZINC000981048968    0.0900
     10 C10        -6.8527    3.8867   52.6488 C.3     1  ZINC000981048968   -0.1300
     11 C11        -5.3588    4.1955   52.7664 C.3     1  ZINC000981048968   -0.1200
     12 C12        -4.6859    3.9844   51.4086 C.3     1  ZINC000981048968   -0.1100
     13 C13        -4.8732    2.5315   50.9670 C.3     1  ZINC000981048968    0.1000
     14 H14        -4.4216    1.8669   51.7036 H       1  ZINC000981048968    0.0500
     15 N15        -4.2272    2.3288   49.6634 N.3     1  ZINC000981048968   -0.6800
     16 C16        -2.7835    2.1069   49.8200 C.3     1  ZINC000981048968    0.1500
     17 C17        -2.1404    2.0062   48.4609 C.2     1  ZINC000981048968    0.1800
     18 N18        -1.6423    2.9884   47.7711 N.2     1  ZINC000981048968   -0.3800
     19 O19        -1.1986    2.5797   46.7187 O.3     1  ZINC000981048968    0.0800
     20 C20        -1.3767    1.2579   46.6347 C.2     1  ZINC000981048968    0.2100
     21 C21        -0.9674    0.3680   45.4894 C.3     1  ZINC000981048968   -0.0800
     22 C22         0.5169    0.0195   45.3611 C.3     1  ZINC000981048968   -0.1600
     23 C23        -0.4806   -1.0420   45.8294 C.3     1  ZINC000981048968   -0.1500
     24 N24        -1.9712    0.8824   47.7415 N.2     1  ZINC000981048968   -0.4600
     25 C25        -6.3670    2.2227   50.8495 C.3     1  ZINC000981048968   -0.1300
     26 C26       -10.9218   -0.6677   51.9345 C.2     1  ZINC000981048968    0.0200
     27 O27       -12.2426   -0.5016   51.8159 O.3     1  ZINC000981048968   -0.1700
     28 H28       -14.6660    0.5363   51.5525 H       1  ZINC000981048968    0.0800
     29 H29       -14.1676    2.0148   52.4091 H       1  ZINC000981048968    0.0900
     30 H30       -14.0168    1.9185   50.6381 H       1  ZINC000981048968    0.0900
     31 H31       -11.3470    2.6037   51.7323 H       1  ZINC000981048968    0.1600
     32 H32        -9.1143    2.8628   52.0625 H       1  ZINC000981048968    0.4000
     33 H33        -7.3042    4.5513   51.9123 H       1  ZINC000981048968    0.0700
     34 H34        -7.3320    4.0370   53.6161 H       1  ZINC000981048968    0.0700
     35 H35        -5.2254    5.2306   53.0810 H       1  ZINC000981048968    0.0700
     36 H36        -4.9072    3.5308   53.5029 H       1  ZINC000981048968    0.0600
     37 H37        -5.1375    4.6490   50.6720 H       1  ZINC000981048968    0.0700
     38 H38        -3.6217    4.2044   51.4923 H       1  ZINC000981048968    0.0700
     39 H39        -4.6578    1.5670   49.1610 H       1  ZINC000981048968    0.3500
     40 H40        -2.3453    2.9406   50.3686 H       1  ZINC000981048968    0.1100
     41 H41        -2.6159    1.1813   50.3707 H       1  ZINC000981048968    0.0600
     42 H42        -1.5361    0.4957   44.5684 H       1  ZINC000981048968    0.1500
     43 H43         0.9249   -0.0821   44.3555 H       1  ZINC000981048968    0.1200
     44 H44         1.1973    0.4339   46.1051 H       1  ZINC000981048968    0.1100
     45 H45        -0.4563   -1.3260   46.8815 H       1  ZINC000981048968    0.1000
     46 H46        -0.7287   -1.8419   45.1318 H       1  ZINC000981048968    0.1200
     47 H47        -6.5005    1.1876   50.5349 H       1  ZINC000981048968    0.0700
     48 H48        -6.8186    2.8873   50.1130 H       1  ZINC000981048968    0.0800
     49 H49       -10.4098   -1.6142   52.0266 H       1  ZINC000981048968    0.2100
@<TRIPOS>BOND
     1     1     2    1
     2     1    28    1
     3     1    29    1
     4     1    30    1
     5     2    27    1
     6     2     3    2
     7     3     4    1
     8     3    31    1
     9     4     5    1
    10     4    26    2
    11     5     6    2
    12     5     7   am
    13     7     8    1
    14     7    32    1
    15     8     9    1
    16     8    25    1
    17     8    10    1
    18    10    11    1
    19    10    33    1
    20    10    34    1
    21    11    12    1
    22    11    35    1
    23    11    36    1
    24    12    13    1
    25    12    37    1
    26    12    38    1
    27    13    14    1
    28    13    15    1
    29    13    25    1
    30    15    16    1
    31    15    39    1
    32    16    17    1
    33    16    40    1
    34    16    41    1
    35    17    24    1
    36    17    18    2
    37    18    19    1
    38    19    20    1
    39    20    21    1
    40    20    24    2
    41    21    23    1
    42    21    22    1
    43    21    42    1
    44    22    23    1
    45    22    43    1
    46    22    44    1
    47    23    45    1
    48    23    46    1
    49    25    47    1
    50    25    48    1
    51    26    27    1
    52    26    49    1
@<TRIPOS>SUBSTRUCTURE
     1 ZINC000981048968        1 TEMP              0 ****  ****    0 ROOT


##########                                Name:    ZINC000482910431
##########                DOCK_Rotatable_Bonds:                   7
##########                         Heavy_Atoms:                  29
##########                    Molecular_Weight:             414.867
##########                DOCK_Rotatable_Bonds:                   7
##########                       Formal_Charge:          -0.0300001
##########                     HBond_Acceptors:                   8
##########                        HBond_Donors:                   2
##########                         Heavy_Atoms:                  29
##########                          Grid_Score:          -33.221951
##########                     Grid_vdw_energy:          -32.613049
##########                      Grid_es_energy:           -0.608902
##########           Internal_energy_repulsive:           13.232179

@<TRIPOS>MOLECULE
ZINC000482910431
 49 51 1 0 0
SMALL
USER_CHARGES


@<TRIPOS>ATOM
      1 C1        -12.7705   -0.2630   52.9492 C.3     1  ZINC000482910431   -0.1500
      2 C2        -12.3207    0.9871   52.1904 C.3     1  ZINC000482910431    0.0800
      3 C3        -12.6342    0.8205   50.7021 C.3     1  ZINC000482910431   -0.1400
      4 C4        -13.0354    2.1626   52.7138 C.1     1  ZINC000482910431    0.2100
      5 N5        -13.5871    3.0699   53.1176 N.1     1  ZINC000482910431   -0.4300
      6 C6        -10.8372    1.1789   52.3729 C.ar    1  ZINC000482910431   -0.1000
      7 C7         -9.9641    0.1578   52.0455 C.ar    1  ZINC000482910431   -0.0900
      8 C8         -8.6038    0.3306   52.2111 C.ar    1  ZINC000482910431   -0.1200
      9 C9         -8.1132    1.5314   52.7069 C.ar    1  ZINC000482910431    0.1700
     10 N10        -6.7354    1.7098   52.8754 N.am    1  ZINC000482910431   -0.6800
     11 C11        -6.0248    2.3828   51.9489 C.2     1  ZINC000482910431    0.7100
     12 O12        -6.5807    2.8349   50.9666 O.2     1  ZINC000482910431   -0.5500
     13 N13        -4.6979    2.5547   52.1112 N.am    1  ZINC000482910431   -0.7300
     14 C14        -3.9252    3.2847   51.1032 C.3     1  ZINC000482910431    0.1400
     15 H15        -4.4467    4.1958   50.8100 H       1  ZINC000482910431    0.1400
     16 C16        -2.5138    3.6179   51.6400 C.3     1  ZINC000482910431   -0.1400
     17 C17        -1.6477    3.4551   50.3712 C.3     1  ZINC000482910431    0.0900
     18 N18        -2.3831    2.5190   49.5127 N.am    1  ZINC000482910431   -0.5600
     19 C19        -1.8204    1.8300   48.4320 C.ar    1  ZINC000482910431    0.2000
     20 C20        -1.6174    0.4588   48.5116 C.ar    1  ZINC000482910431   -0.1600
     21 C21        -1.0620   -0.2202   47.4442 C.ar    1  ZINC000482910431   -0.0500
     22 C22        -0.7077    0.4644   46.2958 C.ar    1  ZINC000482910431   -0.1000
     23 Cl23       -0.0100   -0.3922   44.9566 Cl      1  ZINC000482910431   -0.0500
     24 C24        -0.9094    1.8333   46.2125 C.ar    1  ZINC000482910431    0.1400
     25 F25        -0.5631    2.4999   45.0896 F       1  ZINC000482910431   -0.1200
     26 C26        -1.4699    2.5159   47.2767 C.ar    1  ZINC000482910431   -0.1900
     27 C27        -3.6692    2.4094   49.8961 C.2     1  ZINC000482910431    0.5000
     28 O28        -4.4982    1.7088   49.3548 O.2     1  ZINC000482910431   -0.4800
     29 C29        -8.9927    2.5549   53.0347 C.ar    1  ZINC000482910431   -0.1400
     30 C30       -10.3514    2.3777   52.8618 C.ar    1  ZINC000482910431   -0.0900
     31 H31       -12.2412   -1.1334   52.5617 H       1  ZINC000482910431    0.0800
     32 H32       -12.5472   -0.1443   54.0096 H       1  ZINC000482910431    0.0700
     33 H33       -13.8436   -0.4017   52.8173 H       1  ZINC000482910431    0.0700
     34 H34       -13.7073    0.6818   50.5701 H       1  ZINC000482910431    0.0700
     35 H35       -12.3137    1.7111   50.1614 H       1  ZINC000482910431    0.0700
     36 H36       -12.1049   -0.0499   50.3145 H       1  ZINC000482910431    0.0800
     37 H37       -10.3462   -0.7760   51.6603 H       1  ZINC000482910431    0.1400
     38 H38        -7.9225   -0.4674   51.9556 H       1  ZINC000482910431    0.1400
     39 H39        -6.2920    1.3491   53.6591 H       1  ZINC000482910431    0.4100
     40 H40        -4.2547    2.1951   52.8954 H       1  ZINC000482910431    0.4000
     41 H41        -2.4701    4.6410   52.0134 H       1  ZINC000482910431    0.1100
     42 H42        -2.2126    2.9093   52.4115 H       1  ZINC000482910431    0.1000
     43 H43        -1.5306    4.4152   49.8687 H       1  ZINC000482910431    0.0900
     44 H44        -0.6726    3.0427   50.6305 H       1  ZINC000482910431    0.1000
     45 H45        -1.8932   -0.0770   49.4079 H       1  ZINC000482910431    0.1700
     46 H46        -0.9039   -1.2867   47.5068 H       1  ZINC000482910431    0.1500
     47 H47        -1.6277    3.5824   47.2122 H       1  ZINC000482910431    0.1500
     48 H48        -8.6141    3.4900   53.4205 H       1  ZINC000482910431    0.1300
     49 H49       -11.0359    3.1735   53.1162 H       1  ZINC000482910431    0.1300
@<TRIPOS>BOND
     1     1     2    1
     2     1    31    1
     3     1    32    1
     4     1    33    1
     5     2     3    1
     6     2     4    1
     7     2     6    1
     8     3    34    1
     9     3    35    1
    10     3    36    1
    11     4     5    3
    12     6    30   ar
    13     6     7   ar
    14     7     8   ar
    15     7    37    1
    16     8     9   ar
    17     8    38    1
    18     9    10    1
    19     9    29   ar
    20    10    11   am
    21    10    39    1
    22    11    12    2
    23    11    13   am
    24    13    14    1
    25    13    40    1
    26    14    15    1
    27    14    27    1
    28    14    16    1
    29    16    17    1
    30    16    41    1
    31    16    42    1
    32    17    18    1
    33    17    43    1
    34    17    44    1
    35    18    19    1
    36    18    27   am
    37    19    26   ar
    38    19    20   ar
    39    20    21   ar
    40    20    45    1
    41    21    22   ar
    42    21    46    1
    43    22    23    1
    44    22    24   ar
    45    24    25    1
    46    24    26   ar
    47    26    47    1
    48    27    28    2
    49    29    30   ar
    50    29    48    1
    51    30    49    1
@<TRIPOS>SUBSTRUCTURE
     1 ZINC000482910431        1 TEMP              0 ****  ****    0 ROOT


##########                                Name:    ZINC001181473921
##########                DOCK_Rotatable_Bonds:                   9
##########                         Heavy_Atoms:                  24
##########                    Molecular_Weight:             357.431
##########                DOCK_Rotatable_Bonds:                   9
##########                       Formal_Charge:        -5.96046e-08
##########                     HBond_Acceptors:                   9
##########                        HBond_Donors:                   4
##########                         Heavy_Atoms:                  24
##########                          Grid_Score:          -33.220295
##########                     Grid_vdw_energy:          -31.002748
##########                      Grid_es_energy:           -2.217547
##########           Internal_energy_repulsive:           14.414547

@<TRIPOS>MOLECULE
ZINC001181473921
 47 48 1 0 0
SMALL
USER_CHARGES


@<TRIPOS>ATOM
      1 C1         -7.6773    3.8434   51.8382 C.3     1  ZINC001181473921   -0.1300
      2 C2         -7.9208    2.3564   51.8589 C.2     1  ZINC001181473921    0.1900
      3 C3         -9.1754    1.8893   52.0344 C.2     1  ZINC001181473921   -0.2400
      4 C4         -9.4093    0.4998   52.0540 C.2     1  ZINC001181473921    0.2500
      5 O5        -10.6622    0.0156   52.2287 O.3     1  ZINC001181473921   -0.4600
      6 C6         -8.3401   -0.3617   51.8919 C.2     1  ZINC001181473921   -0.3700
      7 C7         -7.0578    0.1701   51.7130 C.2     1  ZINC001181473921    0.5300
      8 O8         -6.1030   -0.5773   51.5679 O.2     1  ZINC001181473921   -0.5500
      9 N9         -6.8757    1.5036   51.6949 N.am    1  ZINC001181473921   -0.5000
     10 C10        -5.5272    2.0442   51.5062 C.3     1  ZINC001181473921    0.1000
     11 C11        -5.1334    1.9293   50.0323 C.3     1  ZINC001181473921   -0.1600
     12 C12        -3.6597    2.2074   49.8828 C.2     1  ZINC001181473921    0.5200
     13 O13        -2.9764    2.4006   50.8660 O.2     1  ZINC001181473921   -0.5300
     14 N14        -3.1012    2.2413   48.6567 N.am    1  ZINC001181473921   -0.7200
     15 C15        -1.6690    2.5133   48.5114 C.3     1  ZINC001181473921    0.1400
     16 H16        -1.4031    3.4487   49.0041 H       1  ZINC001181473921    0.1000
     17 C17        -1.2655    2.5462   47.0164 C.3     1  ZINC001181473921   -0.1300
     18 C18         0.2431    2.2241   47.0247 C.3     1  ZINC001181473921   -0.1500
     19 C19         0.5214    1.4554   48.3283 C.3     1  ZINC001181473921   -0.0800
     20 H20         1.2355    2.0057   48.9410 H       1  ZINC001181473921    0.0900
     21 C21         1.0690    0.0629   48.0090 C.3     1  ZINC001181473921   -0.6200
     22 S22         2.8158    0.1935   47.5375 S.o2    1  ZINC001181473921    2.6100
     23 N23         3.4387   -1.3109   47.8389 N.am    1  ZINC001181473921   -1.2500
     24 O24         2.9423    0.3499   46.1308 O.2     1  ZINC001181473921   -0.9600
     25 O25         3.5119    1.0474   48.4350 O.2     1  ZINC001181473921   -0.9600
     26 C26        -0.8278    1.3395   49.0714 C.3     1  ZINC001181473921   -0.1200
     27 H27        -7.1677    4.1153   50.9138 H       1  ZINC001181473921    0.0900
     28 H28        -8.6307    4.3686   51.8955 H       1  ZINC001181473921    0.1000
     29 H29        -7.0574    4.1220   52.6903 H       1  ZINC001181473921    0.0900
     30 H30        -9.9974    2.5786   52.1597 H       1  ZINC001181473921    0.1500
     31 H31       -11.3577    0.5884   51.8776 H       1  ZINC001181473921    0.4100
     32 H32        -8.4924   -1.4308   51.9034 H       1  ZINC001181473921    0.1500
     33 H33        -5.5105    3.0920   51.8061 H       1  ZINC001181473921    0.1000
     34 H34        -4.8211    1.4804   52.1160 H       1  ZINC001181473921    0.1100
     35 H35        -5.3511    0.9227   49.6753 H       1  ZINC001181473921    0.1100
     36 H36        -5.7007    2.6530   49.4471 H       1  ZINC001181473921    0.1000
     37 H37        -3.6475    2.0856   47.8705 H       1  ZINC001181473921    0.4000
     38 H38        -1.8142    1.7890   46.4564 H       1  ZINC001181473921    0.0700
     39 H39        -1.4419    3.5360   46.5953 H       1  ZINC001181473921    0.0800
     40 H40         0.4974    1.6048   46.1645 H       1  ZINC001181473921    0.0900
     41 H41         0.8222    3.1473   47.0047 H       1  ZINC001181473921    0.0800
     42 H42         0.9767   -0.5743   48.8885 H       1  ZINC001181473921    0.1400
     43 H43         0.5018   -0.3704   47.1852 H       1  ZINC001181473921    0.1400
     44 H44         3.4128   -1.6755   48.7374 H       1  ZINC001181473921    0.4100
     45 H45         3.8296   -1.8276   47.1170 H       1  ZINC001181473921    0.4200
     46 H46        -0.6818    1.4470   50.1462 H       1  ZINC001181473921    0.0800
     47 H47        -1.3080    0.3878   48.8440 H       1  ZINC001181473921    0.0800
@<TRIPOS>BOND
     1     1     2    1
     2     1    27    1
     3     1    28    1
     4     1    29    1
     5     2     9    1
     6     2     3    2
     7     3     4    1
     8     3    30    1
     9     4     5    1
    10     4     6    2
    11     5    31    1
    12     6     7    1
    13     6    32    1
    14     7     8    2
    15     7     9   am
    16     9    10    1
    17    10    11    1
    18    10    33    1
    19    10    34    1
    20    11    12    1
    21    11    35    1
    22    11    36    1
    23    12    13    2
    24    12    14   am
    25    14    15    1
    26    14    37    1
    27    15    16    1
    28    15    26    1
    29    15    17    1
    30    17    18    1
    31    17    38    1
    32    17    39    1
    33    18    19    1
    34    18    40    1
    35    18    41    1
    36    19    20    1
    37    19    21    1
    38    19    26    1
    39    21    22    1
    40    21    42    1
    41    21    43    1
    42    22    23   am
    43    22    24    2
    44    22    25    2
    45    23    44    1
    46    23    45    1
    47    26    46    1
    48    26    47    1
@<TRIPOS>SUBSTRUCTURE
     1 ZINC001181473921        1 TEMP              0 ****  ****    0 ROOT


##########                                Name:    ZINC000185598309
##########                DOCK_Rotatable_Bonds:                  14
##########                         Heavy_Atoms:                  25
##########                    Molecular_Weight:             347.457
##########                DOCK_Rotatable_Bonds:                  14
##########                       Formal_Charge:               -0.02
##########                     HBond_Acceptors:                   6
##########                        HBond_Donors:                   4
##########                         Heavy_Atoms:                  25
##########                          Grid_Score:          -33.205784
##########                     Grid_vdw_energy:          -32.485630
##########                      Grid_es_energy:           -0.720155
##########           Internal_energy_repulsive:           13.479034

@<TRIPOS>MOLECULE
ZINC000185598309
 54 54 1 0 0
SMALL
USER_CHARGES


@<TRIPOS>ATOM
      1 C1         -7.5439    3.7639   55.0496 C.3     1  ZINC000185598309   -0.1300
      2 C2         -7.8210    3.5936   53.5781 C.2     1  ZINC000185598309   -0.1600
      3 C3         -6.9822    2.9244   52.8267 C.2     1  ZINC000185598309   -0.1600
      4 C4         -7.2583    2.7556   51.3549 C.3     1  ZINC000185598309   -0.0900
      5 C5         -6.7268    1.3989   50.8886 C.3     1  ZINC000185598309    0.1700
      6 H6         -6.9386    1.2710   49.8270 H       1  ZINC000185598309    0.1000
      7 C7         -7.4093    0.2834   51.6829 C.3     1  ZINC000185598309    0.0600
      8 O8         -6.9829   -0.9859   51.1843 O.3     1  ZINC000185598309   -0.5700
      9 N9         -5.2796    1.3396   51.1084 N.am    1  ZINC000185598309   -0.7300
     10 C10        -4.4394    1.9105   50.2226 C.2     1  ZINC000185598309    0.7000
     11 O11        -4.8827    2.4760   49.2418 O.2     1  ZINC000185598309   -0.5900
     12 N12        -3.1080    1.8546   50.4241 N.am    1  ZINC000185598309   -0.7400
     13 C13        -2.1948    2.4737   49.4602 C.3     1  ZINC000185598309    0.1800
     14 C14        -1.5996    1.4080   48.5763 C.ar    1  ZINC000185598309   -0.0900
     15 C15        -1.5908    0.0901   48.9939 C.ar    1  ZINC000185598309   -0.1100
     16 C16        -1.0451   -0.8908   48.1859 C.ar    1  ZINC000185598309   -0.1000
     17 C17        -0.5075   -0.5564   46.9586 C.ar    1  ZINC000185598309   -0.1100
     18 C18        -0.5151    0.7666   46.5361 C.ar    1  ZINC000185598309    0.1400
     19 N19         0.0284    1.1088   45.2930 N.am    1  ZINC000185598309   -0.6800
     20 C20         1.3612    1.2571   45.1580 C.2     1  ZINC000185598309    0.5200
     21 O21         2.0894    1.0941   46.1141 O.2     1  ZINC000185598309   -0.5200
     22 C22         1.9465    1.6256   43.8190 C.3     1  ZINC000185598309   -0.1100
     23 H23         1.2102    1.4401   43.0371 H       1  ZINC000185598309    0.1000
     24 C24         3.1932    0.7783   43.5568 C.3     1  ZINC000185598309   -0.1500
     25 C25         2.3278    3.1074   43.8195 C.3     1  ZINC000185598309   -0.1100
     26 C26         1.0752    3.9562   43.5930 C.3     1  ZINC000185598309   -0.1600
     27 C27        -1.0685    1.7483   47.3474 C.ar    1  ZINC000185598309   -0.1300
     28 H28        -8.3461    4.3442   55.5056 H       1  ZINC000185598309    0.0600
     29 H29        -7.4888    2.7844   55.5246 H       1  ZINC000185598309    0.0600
     30 H30        -6.5966    4.2863   55.1828 H       1  ZINC000185598309    0.0600
     31 H31        -8.7113    4.0234   53.1429 H       1  ZINC000185598309    0.1100
     32 H32        -6.0927    2.4935   53.2622 H       1  ZINC000185598309    0.1100
     33 H33        -8.3329    2.8050   51.1788 H       1  ZINC000185598309    0.0900
     34 H34        -6.7621    3.5510   50.7987 H       1  ZINC000185598309    0.0800
     35 H35        -7.1396    0.3697   52.7355 H       1  ZINC000185598309    0.0500
     36 H36        -8.4906    0.3710   51.5766 H       1  ZINC000185598309    0.0500
     37 H37        -7.1998   -1.1362   50.2539 H       1  ZINC000185598309    0.3800
     38 H38        -4.9260    0.8895   51.8915 H       1  ZINC000185598309    0.4000
     39 H39        -2.7544    1.4045   51.2072 H       1  ZINC000185598309    0.4000
     40 H40        -2.7433    3.1892   48.8476 H       1  ZINC000185598309    0.0700
     41 H41        -1.3972    2.9895   49.9949 H       1  ZINC000185598309    0.0800
     42 H42        -2.0106   -0.1741   49.9532 H       1  ZINC000185598309    0.1300
     43 H43        -1.0390   -1.9194   48.5152 H       1  ZINC000185598309    0.1300
     44 H44        -0.0811   -1.3227   46.3283 H       1  ZINC000185598309    0.1300
     45 H45        -0.5540    1.2392   44.5283 H       1  ZINC000185598309    0.4100
     46 H46         2.9216   -0.2774   43.5565 H       1  ZINC000185598309    0.0600
     47 H47         3.6166    1.0448   42.5885 H       1  ZINC000185598309    0.0800
     48 H48         3.9295    0.9637   44.3388 H       1  ZINC000185598309    0.0600
     49 H49         2.7742    3.3674   44.7793 H       1  ZINC000185598309    0.0700
     50 H50         3.0452    3.2981   43.0215 H       1  ZINC000185598309    0.0700
     51 H51         0.6287    3.6962   42.6332 H       1  ZINC000185598309    0.0600
     52 H52         0.3577    3.7654   44.3910 H       1  ZINC000185598309    0.0600
     53 H53         1.3468    5.0119   43.5932 H       1  ZINC000185598309    0.0600
     54 H54        -1.0760    2.7780   47.0216 H       1  ZINC000185598309    0.1300
@<TRIPOS>BOND
     1     1     2    1
     2     1    28    1
     3     1    29    1
     4     1    30    1
     5     2     3    2
     6     2    31    1
     7     3     4    1
     8     3    32    1
     9     4     5    1
    10     4    33    1
    11     4    34    1
    12     5     6    1
    13     5     7    1
    14     5     9    1
    15     7     8    1
    16     7    35    1
    17     7    36    1
    18     8    37    1
    19     9    10   am
    20     9    38    1
    21    10    11    2
    22    10    12   am
    23    12    13    1
    24    12    39    1
    25    13    14    1
    26    13    40    1
    27    13    41    1
    28    14    27   ar
    29    14    15   ar
    30    15    16   ar
    31    15    42    1
    32    16    17   ar
    33    16    43    1
    34    17    18   ar
    35    17    44    1
    36    18    19    1
    37    18    27   ar
    38    19    20   am
    39    19    45    1
    40    20    21    2
    41    20    22    1
    42    22    23    1
    43    22    24    1
    44    22    25    1
    45    24    46    1
    46    24    47    1
    47    24    48    1
    48    25    26    1
    49    25    49    1
    50    25    50    1
    51    26    51    1
    52    26    52    1
    53    26    53    1
    54    27    54    1
@<TRIPOS>SUBSTRUCTURE
     1 ZINC000185598309        1 TEMP              0 ****  ****    0 ROOT


##########                                Name:    ZINC000821177065
##########                DOCK_Rotatable_Bonds:                  10
##########                         Heavy_Atoms:                  25
##########                    Molecular_Weight:             341.413
##########                DOCK_Rotatable_Bonds:                  10
##########                       Formal_Charge:          0.00999917
##########                     HBond_Acceptors:                   7
##########                        HBond_Donors:                   3
##########                         Heavy_Atoms:                  25
##########                          Grid_Score:          -33.182549
##########                     Grid_vdw_energy:          -33.363853
##########                      Grid_es_energy:            0.181305
##########           Internal_energy_repulsive:           12.674087

@<TRIPOS>MOLECULE
ZINC000821177065
 48 51 1 0 0
SMALL
USER_CHARGES


@<TRIPOS>ATOM
      1 O1         -7.5906    2.5050   52.0020 O.2     1  ZINC000821177065   -0.5600
      2 C2         -7.6338    1.2986   51.8570 C.2     1  ZINC000821177065    0.7100
      3 N3         -8.5773    0.5767   52.4935 N.am    1  ZINC000821177065   -0.7300
      4 C4         -9.5473    1.2450   53.3646 C.3     1  ZINC000821177065    0.1200
      5 C5        -10.8545    0.4499   53.3767 C.3     1  ZINC000821177065    0.1900
      6 O6        -10.5786   -0.9156   53.6949 O.3     1  ZINC000821177065   -0.5400
      7 C7        -11.7992    1.0375   54.4270 C.3     1  ZINC000821177065   -0.1500
      8 C8        -12.4350    0.0689   55.4261 C.3     1  ZINC000821177065   -0.1600
      9 C9        -11.3315    1.0248   55.8838 C.3     1  ZINC000821177065   -0.1700
     10 C10       -11.5125    0.5293   51.9976 C.3     1  ZINC000821177065   -0.1800
     11 C11       -11.4603   -0.7205   51.1169 C.3     1  ZINC000821177065   -0.1900
     12 C12       -12.7783   -0.2996   51.7700 C.3     1  ZINC000821177065   -0.1700
     13 N13        -6.7415    0.6837   51.0557 N.am    1  ZINC000821177065   -0.6500
     14 C14        -5.7599    1.4347   50.3937 C.2     1  ZINC000821177065    0.3200
     15 N15        -4.4622    1.2993   50.5319 N.2     1  ZINC000821177065   -0.3200
     16 N16        -3.8342    2.2347   49.6997 N.pl3   1  ZINC000821177065   -0.3600
     17 C17        -2.3887    2.4204   49.5508 C.3     1  ZINC000821177065    0.1900
     18 C18        -1.8308    1.3333   48.6688 C.ar    1  ZINC000821177065    0.1100
     19 C19        -1.7156    1.5492   47.3088 C.ar    1  ZINC000821177065   -0.1500
     20 C20        -1.2005    0.5425   46.5061 C.ar    1  ZINC000821177065   -0.0700
     21 C21        -0.8192   -0.6484   47.1043 C.ar    1  ZINC000821177065   -0.1700
     22 C22        -0.9639   -0.7919   48.4715 C.ar    1  ZINC000821177065    0.1000
     23 N23        -1.4530    0.1889   49.2046 N.ar    1  ZINC000821177065   -0.4700
     24 C24        -4.7938    2.9345   49.0585 C.2     1  ZINC000821177065    0.0700
     25 C25        -5.9937    2.4589   49.4622 C.2     1  ZINC000821177065   -0.2600
     26 H26        -8.6143   -0.3853   52.3747 H       1  ZINC000821177065    0.4000
     27 H27        -9.1475    1.3022   54.3770 H       1  ZINC000821177065    0.0700
     28 H28        -9.7377    2.2514   52.9916 H       1  ZINC000821177065    0.0800
     29 H29        -9.8621   -1.3037   53.1743 H       1  ZINC000821177065    0.3800
     30 H30       -12.3980    1.8869   54.0981 H       1  ZINC000821177065    0.1100
     31 H31       -13.4526    0.2807   55.7546 H       1  ZINC000821177065    0.0900
     32 H32       -12.1804   -0.9870   55.3352 H       1  ZINC000821177065    0.1100
     33 H33       -10.3509    0.5978   56.0938 H       1  ZINC000821177065    0.1000
     34 H34       -11.6231    1.8655   56.5133 H       1  ZINC000821177065    0.0900
     35 H35       -11.4493    1.4979   51.5017 H       1  ZINC000821177065    0.1100
     36 H36       -11.3625   -0.5746   50.0412 H       1  ZINC000821177065    0.1000
     37 H37       -10.9572   -1.5996   51.5198 H       1  ZINC000821177065    0.1100
     38 H38       -13.1422   -0.9014   52.6027 H       1  ZINC000821177065    0.0900
     39 H39       -13.5475    0.1236   51.1240 H       1  ZINC000821177065    0.1000
     40 H40        -6.7784   -0.2783   50.9369 H       1  ZINC000821177065    0.4100
     41 H41        -2.1919    3.3923   49.0982 H       1  ZINC000821177065    0.1000
     42 H42        -1.9134    2.3730   50.5306 H       1  ZINC000821177065    0.1200
     43 H43        -2.0231    2.4899   46.8764 H       1  ZINC000821177065    0.1400
     44 H44        -1.0992    0.6829   45.4399 H       1  ZINC000821177065    0.1400
     45 H45        -0.4143   -1.4541   46.5098 H       1  ZINC000821177065    0.1400
     46 H46        -0.6696   -1.7168   48.9453 H       1  ZINC000821177065    0.1600
     47 H47        -4.6320    3.7298   48.3461 H       1  ZINC000821177065    0.1800
     48 H48        -6.9604    2.8098   49.1323 H       1  ZINC000821177065    0.1700
@<TRIPOS>BOND
     1     1     2    2
     2     2     3   am
     3     2    13   am
     4     3     4    1
     5     3    26    1
     6     4     5    1
     7     4    27    1
     8     4    28    1
     9     5     6    1
    10     5     7    1
    11     5    10    1
    12     6    29    1
    13     7     9    1
    14     7     8    1
    15     7    30    1
    16     8     9    1
    17     8    31    1
    18     8    32    1
    19     9    33    1
    20     9    34    1
    21    10    12    1
    22    10    11    1
    23    10    35    1
    24    11    12    1
    25    11    36    1
    26    11    37    1
    27    12    38    1
    28    12    39    1
    29    13    14    1
    30    13    40    1
    31    14    25    1
    32    14    15    2
    33    15    16    1
    34    16    17    1
    35    16    24    1
    36    17    18    1
    37    17    41    1
    38    17    42    1
    39    18    23   ar
    40    18    19   ar
    41    19    20   ar
    42    19    43    1
    43    20    21   ar
    44    20    44    1
    45    21    22   ar
    46    21    45    1
    47    22    23   ar
    48    22    46    1
    49    24    25    2
    50    24    47    1
    51    25    48    1
@<TRIPOS>SUBSTRUCTURE
     1 ZINC000821177065        1 TEMP              0 ****  ****    0 ROOT


##########                                Name:    ZINC000863246516
##########                DOCK_Rotatable_Bonds:                   5
##########                         Heavy_Atoms:                  25
##########                    Molecular_Weight:             356.489
##########                DOCK_Rotatable_Bonds:                   5
##########                       Formal_Charge:         -0.00999938
##########                     HBond_Acceptors:                   5
##########                        HBond_Donors:                   0
##########                         Heavy_Atoms:                  25
##########                          Grid_Score:          -33.120064
##########                     Grid_vdw_energy:          -33.025375
##########                      Grid_es_energy:           -0.094689
##########           Internal_energy_repulsive:           13.587492

@<TRIPOS>MOLECULE
ZINC000863246516
 49 52 1 0 0
SMALL
USER_CHARGES


@<TRIPOS>ATOM
      1 C1        -10.2994   -0.2704   52.0438 C.3     1  ZINC000863246516   -0.0600
      2 C2         -9.1938    0.6772   52.4321 C.2     1  ZINC000863246516   -0.2000
      3 C3         -7.9049    0.5715   52.1407 C.2     1  ZINC000863246516    0.0900
      4 C4         -7.3685   -0.5842   51.3360 C.3     1  ZINC000863246516   -0.1000
      5 N5         -7.0888    1.5599   52.6044 N.am    1  ZINC000863246516   -0.5300
      6 C6         -5.6476    1.5454   52.3417 C.3     1  ZINC000863246516    0.1200
      7 C7         -5.3801    2.0870   50.9360 C.3     1  ZINC000863246516   -0.1500
      8 C8         -4.1700    2.9847   50.9655 C.2     1  ZINC000863246516    0.5400
      9 O9         -4.2271    4.0615   51.5207 O.2     1  ZINC000863246516   -0.5300
     10 N10        -3.0243    2.5910   50.3748 N.am    1  ZINC000863246516   -0.6100
     11 C11        -1.7806    3.3684   50.3329 C.3     1  ZINC000863246516    0.1100
     12 C12        -0.6508    2.3791   49.9892 C.3     1  ZINC000863246516   -0.1300
     13 H13        -0.0353    2.0621   50.8309 H       1  ZINC000863246516    0.1000
     14 C14         0.0954    2.7419   48.6945 C.3     1  ZINC000863246516   -0.1200
     15 C15        -1.0928    2.1416   47.9259 C.3     1  ZINC000863246516   -0.0600
     16 H16        -1.8826    2.8619   47.7124 H       1  ZINC000863246516    0.1000
     17 C17        -0.6855    1.3443   46.7136 C.ar    1  ZINC000863246516   -0.0700
     18 C18        -0.9642   -0.0082   46.6503 C.ar    1  ZINC000863246516   -0.1200
     19 C19        -0.5906   -0.7394   45.5383 C.ar    1  ZINC000863246516   -0.1200
     20 C20         0.0613   -0.1182   44.4894 C.ar    1  ZINC000863246516   -0.1200
     21 C21         0.3390    1.2345   44.5524 C.ar    1  ZINC000863246516   -0.1200
     22 C22        -0.0384    1.9667   45.6626 C.ar    1  ZINC000863246516   -0.1200
     23 C23        -1.3707    1.2691   49.1832 C.3     1  ZINC000863246516   -0.1100
     24 H24        -0.9084    0.2820   49.1881 H       1  ZINC000863246516    0.1200
     25 C25        -2.8237    1.3159   49.6787 C.3     1  ZINC000863246516    0.1200
     26 C26        -7.6605    2.5475   53.3115 C.2     1  ZINC000863246516    0.4800
     27 O27        -7.1054    3.5123   53.8066 O.2     1  ZINC000863246516   -0.4700
     28 S28        -9.3407    2.1743   53.3691 S.3     1  ZINC000863246516    0.0100
     29 H29       -11.2483    0.0999   52.4320 H       1  ZINC000863246516    0.0700
     30 H30       -10.3537   -0.3398   50.9574 H       1  ZINC000863246516    0.0800
     31 H31       -10.0961   -1.2565   52.4613 H       1  ZINC000863246516    0.0800
     32 H32        -8.1873   -1.2525   51.0695 H       1  ZINC000863246516    0.0900
     33 H33        -6.8971   -0.2073   50.4283 H       1  ZINC000863246516    0.0800
     34 H34        -6.6330   -1.1289   51.9280 H       1  ZINC000863246516    0.0800
     35 H35        -5.1383    2.1706   53.0750 H       1  ZINC000863246516    0.1000
     36 H36        -5.2754    0.5235   52.4143 H       1  ZINC000863246516    0.1000
     37 H37        -5.1992    1.2556   50.2546 H       1  ZINC000863246516    0.1000
     38 H38        -6.2456    2.6549   50.5946 H       1  ZINC000863246516    0.1000
     39 H39        -1.8480    4.1390   49.5648 H       1  ZINC000863246516    0.0700
     40 H40        -1.5933    3.8253   51.3047 H       1  ZINC000863246516    0.0800
     41 H41         0.2134    3.8152   48.5455 H       1  ZINC000863246516    0.0800
     42 H42         1.0258    2.1906   48.5585 H       1  ZINC000863246516    0.0900
     43 H43        -1.4735   -0.4935   47.4696 H       1  ZINC000863246516    0.1200
     44 H44        -0.8077   -1.7963   45.4891 H       1  ZINC000863246516    0.1200
     45 H45         0.3537   -0.6897   43.6210 H       1  ZINC000863246516    0.1200
     46 H46         0.8487    1.7198   43.7332 H       1  ZINC000863246516    0.1200
     47 H47         0.1788    3.0235   45.7118 H       1  ZINC000863246516    0.1200
     48 H48        -3.0109    0.4788   50.3513 H       1  ZINC000863246516    0.0700
     49 H49        -3.5047    1.2654   48.8290 H       1  ZINC000863246516    0.0700
@<TRIPOS>BOND
     1     1     2    1
     2     1    29    1
     3     1    30    1
     4     1    31    1
     5     2    28    1
     6     2     3    2
     7     3     4    1
     8     3     5    1
     9     4    32    1
    10     4    33    1
    11     4    34    1
    12     5     6    1
    13     5    26   am
    14     6     7    1
    15     6    35    1
    16     6    36    1
    17     7     8    1
    18     7    37    1
    19     7    38    1
    20     8     9    2
    21     8    10   am
    22    10    25    1
    23    10    11    1
    24    11    12    1
    25    11    39    1
    26    11    40    1
    27    12    13    1
    28    12    23    1
    29    12    14    1
    30    14    15    1
    31    14    41    1
    32    14    42    1
    33    15    16    1
    34    15    17    1
    35    15    23    1
    36    17    22   ar
    37    17    18   ar
    38    18    19   ar
    39    18    43    1
    40    19    20   ar
    41    19    44    1
    42    20    21   ar
    43    20    45    1
    44    21    22   ar
    45    21    46    1
    46    22    47    1
    47    23    24    1
    48    23    25    1
    49    25    48    1
    50    25    49    1
    51    26    27    2
    52    26    28    1
@<TRIPOS>SUBSTRUCTURE
     1 ZINC000863246516        1 TEMP              0 ****  ****    0 ROOT


##########                                Name:    ZINC001289445798
##########                DOCK_Rotatable_Bonds:                  10
##########                         Heavy_Atoms:                  25
##########                    Molecular_Weight:             352.434
##########                DOCK_Rotatable_Bonds:                  10
##########                       Formal_Charge:          0.00999932
##########                     HBond_Acceptors:                   8
##########                        HBond_Donors:                   2
##########                         Heavy_Atoms:                  25
##########                          Grid_Score:          -33.090897
##########                     Grid_vdw_energy:          -30.603773
##########                      Grid_es_energy:           -2.487125
##########           Internal_energy_repulsive:           22.636171

@<TRIPOS>MOLECULE
ZINC001289445798
 53 54 1 0 0
SMALL
USER_CHARGES


@<TRIPOS>ATOM
      1 C1        -12.9533   -0.3135   53.1944 C.3     1  ZINC001289445798   -0.1500
      2 C2        -12.0125   -0.3146   54.4008 C.3     1  ZINC001289445798    0.0600
      3 O3        -10.6944    0.0401   53.9774 O.3     1  ZINC001289445798   -0.3700
      4 C4        -10.5654    1.3994   53.5562 C.3     1  ZINC001289445798    0.1100
      5 H5        -11.5436    1.8798   53.5741 H       1  ZINC001289445798    0.0700
      6 C6        -10.0027    1.4413   52.1339 C.3     1  ZINC001289445798   -0.1400
      7 C7         -8.6981    0.6884   52.0874 C.2     1  ZINC001289445798    0.5400
      8 O8         -8.6633   -0.4840   52.3960 O.2     1  ZINC001289445798   -0.5200
      9 N9         -7.5701    1.3178   51.7029 N.am    1  ZINC001289445798   -0.6200
     10 C10        -6.2374    0.7047   51.6054 C.3     1  ZINC001289445798    0.1000
     11 C11        -5.2677    1.7940   51.1011 C.3     1  ZINC001289445798    0.1400
     12 H12        -4.7484    2.2647   51.9358 H       1  ZINC001289445798    0.1200
     13 N13        -4.3085    1.2326   50.1466 N.am    1  ZINC001289445798   -0.7200
     14 C14        -3.1180    1.8345   49.9548 C.2     1  ZINC001289445798    0.6000
     15 O15        -2.8404    2.8445   50.5730 O.2     1  ZINC001289445798   -0.5100
     16 C16        -2.1536    1.2696   48.9973 C.2     1  ZINC001289445798   -0.0500
     17 C17        -1.3415    1.9719   48.1240 C.2     1  ZINC001289445798   -0.1400
     18 C18        -0.6141    1.0004   47.4328 C.2     1  ZINC001289445798    0.0000
     19 N19        -0.9847   -0.1723   47.8798 N.2     1  ZINC001289445798   -0.2700
     20 N20        -1.8764   -0.0529   48.7967 N.pl3   1  ZINC001289445798   -0.3800
     21 C21        -6.2144    2.8058   50.4029 C.3     1  ZINC001289445798    0.0700
     22 H22        -6.4478    2.4859   49.3874 H       1  ZINC001289445798    0.0900
     23 O23        -5.6524    4.1197   50.4064 O.3     1  ZINC001289445798   -0.3700
     24 C24        -6.4954    5.1140   49.8211 C.3     1  ZINC001289445798    0.0300
     25 C25        -7.4695    2.7335   51.3042 C.3     1  ZINC001289445798    0.0800
     26 C26        -9.6167    2.1386   54.5018 C.3     1  ZINC001289445798   -0.1100
     27 C27        -9.8932    3.6416   54.4296 C.3     1  ZINC001289445798   -0.1500
     28 C28        -9.8388    1.6474   55.9338 C.3     1  ZINC001289445798   -0.1500
     29 H29       -12.6013   -1.0364   52.4585 H       1  ZINC001289445798    0.0600
     30 H30       -13.9586   -0.5839   53.5173 H       1  ZINC001289445798    0.0700
     31 H31       -12.9703    0.6806   52.7478 H       1  ZINC001289445798    0.0600
     32 H32       -12.3644    0.4083   55.1368 H       1  ZINC001289445798    0.0500
     33 H33       -11.9954   -1.3088   54.8474 H       1  ZINC001289445798    0.0500
     34 H34       -10.7133    0.9795   51.4484 H       1  ZINC001289445798    0.1100
     35 H35        -9.8350    2.4774   51.8399 H       1  ZINC001289445798    0.1000
     36 H36        -5.9196    0.3507   52.5862 H       1  ZINC001289445798    0.0800
     37 H37        -6.2620   -0.1255   50.8995 H       1  ZINC001289445798    0.0800
     38 H38        -4.5302    0.4278   49.6526 H       1  ZINC001289445798    0.4000
     39 H39        -1.2828    3.0436   48.0028 H       1  ZINC001289445798    0.1700
     40 H40         0.1230    1.1844   46.6652 H       1  ZINC001289445798    0.1900
     41 H41        -2.2941   -0.7896   49.2695 H       1  ZINC001289445798    0.4400
     42 H42        -5.9973    6.0828   49.8625 H       1  ZINC001289445798    0.0900
     43 H43        -6.6972    4.8535   48.7821 H       1  ZINC001289445798    0.0400
     44 H44        -7.4344    5.1645   50.3722 H       1  ZINC001289445798    0.0500
     45 H45        -8.3551    3.0380   50.7465 H       1  ZINC001289445798    0.0900
     46 H46        -7.3404    3.3620   52.1854 H       1  ZINC001289445798    0.0900
     47 H47        -8.5854    1.9443   54.2071 H       1  ZINC001289445798    0.0800
     48 H48       -10.9244    3.8359   54.7245 H       1  ZINC001289445798    0.0600
     49 H49        -9.2173    4.1682   55.1034 H       1  ZINC001289445798    0.0600
     50 H50        -9.7349    3.9916   53.4095 H       1  ZINC001289445798    0.0600
     51 H51        -9.5483    0.5995   56.0076 H       1  ZINC001289445798    0.0600
     52 H52        -9.2345    2.2412   56.6195 H       1  ZINC001289445798    0.0600
     53 H53       -10.8921    1.7516   56.1943 H       1  ZINC001289445798    0.0500
@<TRIPOS>BOND
     1     1     2    1
     2     1    29    1
     3     1    30    1
     4     1    31    1
     5     2     3    1
     6     2    32    1
     7     2    33    1
     8     3     4    1
     9     4     5    1
    10     4     6    1
    11     4    26    1
    12     6     7    1
    13     6    34    1
    14     6    35    1
    15     7     8    2
    16     7     9   am
    17     9    25    1
    18     9    10    1
    19    10    11    1
    20    10    36    1
    21    10    37    1
    22    11    12    1
    23    11    13    1
    24    11    21    1
    25    13    14   am
    26    13    38    1
    27    14    15    2
    28    14    16    1
    29    16    20    1
    30    16    17    2
    31    17    18    1
    32    17    39    1
    33    18    19    2
    34    18    40    1
    35    19    20    1
    36    20    41    1
    37    21    22    1
    38    21    23    1
    39    21    25    1
    40    23    24    1
    41    24    42    1
    42    24    43    1
    43    24    44    1
    44    25    45    1
    45    25    46    1
    46    26    27    1
    47    26    28    1
    48    26    47    1
    49    27    48    1
    50    27    49    1
    51    27    50    1
    52    28    51    1
    53    28    52    1
    54    28    53    1
@<TRIPOS>SUBSTRUCTURE
     1 ZINC001289445798        1 TEMP              0 ****  ****    0 ROOT


##########                                Name:    ZINC000462219577
##########                DOCK_Rotatable_Bonds:                   8
##########                         Heavy_Atoms:                  31
##########                    Molecular_Weight:             418.539
##########                DOCK_Rotatable_Bonds:                   8
##########                       Formal_Charge:         -0.00999914
##########                     HBond_Acceptors:                   6
##########                        HBond_Donors:                   2
##########                         Heavy_Atoms:                  31
##########                          Grid_Score:          -33.044575
##########                     Grid_vdw_energy:          -32.791470
##########                      Grid_es_energy:           -0.253104
##########           Internal_energy_repulsive:          176.786682

@<TRIPOS>MOLECULE
ZINC000462219577
 61 64 1 0 0
SMALL
USER_CHARGES


@<TRIPOS>ATOM
      1 C1        -10.1772    2.0546   53.5435 C.3     1  ZINC000462219577   -0.0700
      2 C2         -8.7052    2.2431   53.2809 C.2     1  ZINC000462219577    0.0800
      3 N3         -7.9485    3.1798   53.7934 N.2     1  ZINC000462219577   -0.2900
      4 N4         -6.6478    3.0099   53.3020 N.pl3   1  ZINC000462219577   -0.3200
      5 C5         -5.5381    3.8088   53.6110 C.ar    1  ZINC000462219577    0.1500
      6 C6         -4.3014    3.5305   53.0449 C.ar    1  ZINC000462219577   -0.1100
      7 C7         -3.2099    4.3195   53.3513 C.ar    1  ZINC000462219577   -0.1000
      8 C8         -3.3480    5.3855   54.2213 C.ar    1  ZINC000462219577   -0.1200
      9 C9         -4.5784    5.6649   54.7870 C.ar    1  ZINC000462219577   -0.1000
     10 C10        -5.6749    4.8835   54.4793 C.ar    1  ZINC000462219577   -0.1300
     11 C11        -6.6520    1.9383   52.4771 C.2     1  ZINC000462219577    0.0900
     12 C12        -5.4661    1.3902   51.7261 C.3     1  ZINC000462219577   -0.0800
     13 C13        -5.1290    2.3187   50.5576 C.3     1  ZINC000462219577    0.1700
     14 H14        -4.6337    3.2131   50.9356 H       1  ZINC000462219577    0.1000
     15 C15        -6.4172    2.7162   49.8340 C.3     1  ZINC000462219577   -0.1600
     16 N16        -4.2386    1.6249   49.6238 N.am    1  ZINC000462219577   -0.7400
     17 C17        -2.9032    1.6827   49.7970 C.2     1  ZINC000462219577    0.7100
     18 O18        -2.4377    2.3095   50.7290 O.2     1  ZINC000462219577   -0.5800
     19 N19        -2.0839    1.0458   48.9369 N.am    1  ZINC000462219577   -0.7400
     20 C20        -0.6326    1.1072   49.1261 C.3     1  ZINC000462219577    0.1600
     21 H21        -0.4084    1.6097   50.0671 H       1  ZINC000462219577    0.1000
     22 C22        -0.0589   -0.3129   49.1544 C.3     1  ZINC000462219577   -0.1700
     23 C23        -0.3115   -0.9838   47.8016 C.3     1  ZINC000462219577    0.0700
     24 O24         0.2793   -0.1983   46.7643 O.3     1  ZINC000462219577   -0.3700
     25 C25        -0.2518    1.1242   46.6596 C.3     1  ZINC000462219577    0.1400
     26 H26        -1.3245    1.0717   46.4734 H       1  ZINC000462219577    0.0600
     27 C27         0.4210    1.8473   45.5212 C.ar    1  ZINC000462219577   -0.0900
     28 C28         1.7913    1.7608   45.3611 C.ar    1  ZINC000462219577   -0.0900
     29 C29         2.4084    2.4240   44.3170 C.ar    1  ZINC000462219577   -0.1200
     30 C30         1.6552    3.1734   43.4328 C.ar    1  ZINC000462219577   -0.1200
     31 C31         0.2847    3.2592   43.5924 C.ar    1  ZINC000462219577   -0.1200
     32 C32        -0.3329    2.5925   44.6340 C.ar    1  ZINC000462219577   -0.1100
     33 C33         0.0030    1.8818   47.9675 C.3     1  ZINC000462219577   -0.1500
     34 C34        -7.9111    1.4431   52.4521 C.2     1  ZINC000462219577   -0.2600
     35 H35       -10.3118    1.4007   54.4051 H       1  ZINC000462219577    0.0800
     36 H36       -10.6369    3.0220   53.7461 H       1  ZINC000462219577    0.0700
     37 H37       -10.6476    1.6049   52.6691 H       1  ZINC000462219577    0.0800
     38 H38        -4.1927    2.6978   52.3658 H       1  ZINC000462219577    0.1300
     39 H39        -2.2476    4.1036   52.9112 H       1  ZINC000462219577    0.1300
     40 H40        -2.4930    6.0007   54.4596 H       1  ZINC000462219577    0.1300
     41 H41        -4.6830    6.4976   55.4667 H       1  ZINC000462219577    0.1300
     42 H42        -6.6357    5.1022   54.9215 H       1  ZINC000462219577    0.1300
     43 H43        -4.6096    1.3247   52.3970 H       1  ZINC000462219577    0.0900
     44 H44        -5.7051    0.3977   51.3440 H       1  ZINC000462219577    0.1100
     45 H45        -6.9125    1.8218   49.4562 H       1  ZINC000462219577    0.0600
     46 H46        -7.0796    3.2324   50.5288 H       1  ZINC000462219577    0.0700
     47 H47        -6.1770    3.3777   49.0016 H       1  ZINC000462219577    0.0700
     48 H48        -4.6101    1.1239   48.8810 H       1  ZINC000462219577    0.3900
     49 H49        -2.4554    0.5467   48.1927 H       1  ZINC000462219577    0.3900
     50 H50         1.0135   -0.2688   49.3446 H       1  ZINC000462219577    0.0800
     51 H51        -0.5463   -0.8870   49.9423 H       1  ZINC000462219577    0.0800
     52 H52         0.1323   -1.9794   47.8012 H       1  ZINC000462219577    0.1000
     53 H53        -1.3849   -1.0640   47.6304 H       1  ZINC000462219577    0.0500
     54 H54         2.3798    1.1753   46.0519 H       1  ZINC000462219577    0.1300
     55 H55         3.4791    2.3569   44.1922 H       1  ZINC000462219577    0.1200
     56 H56         2.1373    3.6921   42.6174 H       1  ZINC000462219577    0.1200
     57 H57        -0.3037    3.8450   42.9017 H       1  ZINC000462219577    0.1200
     58 H58        -1.4035    2.6596   44.7588 H       1  ZINC000462219577    0.1200
     59 H59        -0.4403    2.8757   47.9051 H       1  ZINC000462219577    0.0800
     60 H60         1.0765    1.9705   48.1340 H       1  ZINC000462219577    0.0900
     61 H61        -8.2455    0.5859   51.8864 H       1  ZINC000462219577    0.1500
@<TRIPOS>BOND
     1     1     2    1
     2     1    35    1
     3     1    36    1
     4     1    37    1
     5     2    34    1
     6     2     3    2
     7     3     4    1
     8     4     5    1
     9     4    11    1
    10     5    10   ar
    11     5     6   ar
    12     6     7   ar
    13     6    38    1
    14     7     8   ar
    15     7    39    1
    16     8     9   ar
    17     8    40    1
    18     9    10   ar
    19     9    41    1
    20    10    42    1
    21    11    12    1
    22    11    34    2
    23    12    13    1
    24    12    43    1
    25    12    44    1
    26    13    14    1
    27    13    15    1
    28    13    16    1
    29    15    45    1
    30    15    46    1
    31    15    47    1
    32    16    17   am
    33    16    48    1
    34    17    18    2
    35    17    19   am
    36    19    20    1
    37    19    49    1
    38    20    21    1
    39    20    33    1
    40    20    22    1
    41    22    23    1
    42    22    50    1
    43    22    51    1
    44    23    24    1
    45    23    52    1
    46    23    53    1
    47    24    25    1
    48    25    26    1
    49    25    27    1
    50    25    33    1
    51    27    32   ar
    52    27    28   ar
    53    28    29   ar
    54    28    54    1
    55    29    30   ar
    56    29    55    1
    57    30    31   ar
    58    30    56    1
    59    31    32   ar
    60    31    57    1
    61    32    58    1
    62    33    59    1
    63    33    60    1
    64    34    61    1
@<TRIPOS>SUBSTRUCTURE
     1 ZINC000462219577        1 TEMP              0 ****  ****    0 ROOT


##########                                Name:    ZINC000481838178
##########                DOCK_Rotatable_Bonds:                   6
##########                         Heavy_Atoms:                  29
##########                    Molecular_Weight:             408.524
##########                DOCK_Rotatable_Bonds:                   6
##########                       Formal_Charge:         -0.00999962
##########                     HBond_Acceptors:                   7
##########                        HBond_Donors:                   0
##########                         Heavy_Atoms:                  29
##########                          Grid_Score:          -33.010273
##########                     Grid_vdw_energy:          -32.370403
##########                      Grid_es_energy:           -0.639869
##########           Internal_energy_repulsive:            7.200590

@<TRIPOS>MOLECULE
ZINC000481838178
 53 57 1 0 0
SMALL
USER_CHARGES


@<TRIPOS>ATOM
      1 O1         -2.9024    3.5749   51.4633 O.2     1  ZINC000481838178   -0.5200
      2 C2         -3.1482    2.6751   50.6882 C.2     1  ZINC000481838178    0.5500
      3 C3         -4.5573    2.1571   50.5574 C.3     1  ZINC000481838178   -0.1500
      4 S4         -5.5196    2.6533   52.0078 S.3     1  ZINC000481838178    0.1000
      5 C5         -6.7432    1.3855   52.0117 C.2     1  ZINC000481838178    0.1600
      6 N6         -6.5448    0.1102   51.7647 N.2     1  ZINC000481838178   -0.2800
      7 N7         -7.6519   -0.5362   51.8515 N.2     1  ZINC000481838178   -0.2500
      8 C8         -8.6305    0.2866   52.1603 C.2     1  ZINC000481838178    0.2700
      9 C9        -10.0452   -0.0681   52.3498 C.2     1  ZINC000481838178    0.0300
     10 C10       -10.9132   -0.4481   51.3700 C.2     1  ZINC000481838178   -0.1300
     11 C11       -12.1508   -0.6902   51.9967 C.2     1  ZINC000481838178   -0.2100
     12 C12       -11.9821   -0.4498   53.3123 C.2     1  ZINC000481838178   -0.0100
     13 O13       -10.7079   -0.0800   53.5232 O.3     1  ZINC000481838178   -0.1700
     14 N14        -8.0767    1.5446   52.2785 N.pl3   1  ZINC000481838178   -0.4100
     15 C15        -8.7413    2.7371   52.5964 C.ar    1  ZINC000481838178    0.1000
     16 C16        -9.9379    3.0551   51.9685 C.ar    1  ZINC000481838178   -0.0800
     17 C17       -10.5905    4.2310   52.2837 C.ar    1  ZINC000481838178   -0.1100
     18 C18       -10.0531    5.0909   53.2237 C.ar    1  ZINC000481838178   -0.1000
     19 C19        -8.8614    4.7769   53.8509 C.ar    1  ZINC000481838178   -0.1100
     20 C20        -8.2071    3.5998   53.5440 C.ar    1  ZINC000481838178   -0.0900
     21 N21        -2.1622    2.1422   49.9396 N.am    1  ZINC000481838178   -0.6200
     22 C22        -0.7311    2.5467   49.9672 C.3     1  ZINC000481838178    0.1000
     23 C23        -0.0025    1.2849   49.4897 C.3     1  ZINC000481838178   -0.1100
     24 H24         0.0163    0.5252   50.2711 H       1  ZINC000481838178    0.0900
     25 C25         1.3806    1.4915   48.9015 C.3     1  ZINC000481838178   -0.1100
     26 C26         1.8625    0.1240   48.3891 C.3     1  ZINC000481838178   -0.1200
     27 C27         0.8999   -0.4636   47.3621 C.3     1  ZINC000481838178   -0.1200
     28 C28        -0.5370   -0.5319   47.9068 C.3     1  ZINC000481838178   -0.1000
     29 C29        -0.9401    0.8653   48.3179 C.3     1  ZINC000481838178   -0.1100
     30 H30        -0.7996    1.5542   47.4850 H       1  ZINC000481838178    0.0900
     31 C31        -2.3166    1.0465   48.9505 C.3     1  ZINC000481838178    0.1200
     32 H32        -5.0148    2.5713   49.6588 H       1  ZINC000481838178    0.1300
     33 H33        -4.5397    1.0695   50.4878 H       1  ZINC000481838178    0.1300
     34 H34       -10.6943   -0.5444   50.3168 H       1  ZINC000481838178    0.1600
     35 H35       -13.0631   -1.0082   51.5143 H       1  ZINC000481838178    0.1600
     36 H36       -12.7441   -0.5435   54.0719 H       1  ZINC000481838178    0.2100
     37 H37       -10.3580    2.3840   51.2339 H       1  ZINC000481838178    0.1300
     38 H38       -11.5213    4.4790   51.7953 H       1  ZINC000481838178    0.1400
     39 H39       -10.5650    6.0099   53.4684 H       1  ZINC000481838178    0.1300
     40 H40        -8.4439    5.4508   54.5844 H       1  ZINC000481838178    0.1400
     41 H41        -7.2764    3.3551   54.0342 H       1  ZINC000481838178    0.1300
     42 H42        -0.5523    3.3765   49.2834 H       1  ZINC000481838178    0.0800
     43 H43        -0.4245    2.8081   50.9801 H       1  ZINC000481838178    0.0800
     44 H44         1.3310    2.2013   48.0757 H       1  ZINC000481838178    0.0700
     45 H45         2.0598    1.8608   49.6699 H       1  ZINC000481838178    0.0700
     46 H46         2.8440    0.2420   47.9300 H       1  ZINC000481838178    0.0600
     47 H47         1.9458   -0.5623   49.2319 H       1  ZINC000481838178    0.0600
     48 H48         0.9119    0.1581   46.4668 H       1  ZINC000481838178    0.0600
     49 H49         1.2294   -1.4690   47.1001 H       1  ZINC000481838178    0.0700
     50 H50        -1.2105   -0.9002   47.1329 H       1  ZINC000481838178    0.0700
     51 H51        -0.5739   -1.1884   48.7761 H       1  ZINC000481838178    0.0700
     52 H52        -2.6307    0.1242   49.4390 H       1  ZINC000481838178    0.0700
     53 H53        -3.0436    1.3384   48.1927 H       1  ZINC000481838178    0.0700
@<TRIPOS>BOND
     1     1     2    2
     2     2     3    1
     3     2    21   am
     4     3     4    1
     5     3    32    1
     6     3    33    1
     7     4     5    1
     8     5    14    1
     9     5     6    2
    10     6     7    1
    11     7     8    2
    12     8     9    1
    13     8    14    1
    14     9    13    1
    15     9    10    2
    16    10    11    1
    17    10    34    1
    18    11    12    2
    19    11    35    1
    20    12    13    1
    21    12    36    1
    22    14    15    1
    23    15    20   ar
    24    15    16   ar
    25    16    17   ar
    26    16    37    1
    27    17    18   ar
    28    17    38    1
    29    18    19   ar
    30    18    39    1
    31    19    20   ar
    32    19    40    1
    33    20    41    1
    34    21    31    1
    35    21    22    1
    36    22    23    1
    37    22    42    1
    38    22    43    1
    39    23    24    1
    40    23    29    1
    41    23    25    1
    42    25    26    1
    43    25    44    1
    44    25    45    1
    45    26    27    1
    46    26    46    1
    47    26    47    1
    48    27    28    1
    49    27    48    1
    50    27    49    1
    51    28    29    1
    52    28    50    1
    53    28    51    1
    54    29    30    1
    55    29    31    1
    56    31    52    1
    57    31    53    1
@<TRIPOS>SUBSTRUCTURE
     1 ZINC000481838178        1 TEMP              0 ****  ****    0 ROOT


##########                                Name:    ZINC001191386213
##########                DOCK_Rotatable_Bonds:                   6
##########                         Heavy_Atoms:                  29
##########                    Molecular_Weight:             392.433
##########                DOCK_Rotatable_Bonds:                   6
##########                       Formal_Charge:               -0.02
##########                     HBond_Acceptors:                   7
##########                        HBond_Donors:                   2
##########                         Heavy_Atoms:                  29
##########                          Grid_Score:          -33.003132
##########                     Grid_vdw_energy:          -33.705353
##########                      Grid_es_energy:            0.702221
##########           Internal_energy_repulsive:           24.753000

@<TRIPOS>MOLECULE
ZINC001191386213
 50 53 1 0 0
SMALL
USER_CHARGES


@<TRIPOS>ATOM
      1 C1        -12.3259    4.0011   56.0259 C.3     1  ZINC001191386213   -0.1700
      2 C2        -11.6611    3.2041   54.9333 C.2     1  ZINC001191386213    0.5100
      3 O3        -11.1455    3.7740   53.9950 O.2     1  ZINC001191386213   -0.5200
      4 N4        -11.6393    1.8581   54.9988 N.am    1  ZINC001191386213   -0.6800
      5 C5        -11.0219    1.1180   53.9842 C.ar    1  ZINC001191386213    0.1400
      6 C6        -11.7012    0.0690   53.3777 C.ar    1  ZINC001191386213   -0.1400
      7 C7        -11.0947   -0.6638   52.3750 C.ar    1  ZINC001191386213   -0.1000
      8 C8         -9.8107   -0.3576   51.9710 C.ar    1  ZINC001191386213   -0.1100
      9 C9         -9.1217    0.6929   52.5743 C.ar    1  ZINC001191386213    0.0100
     10 C10        -7.7408    1.0234   52.1409 C.2     1  ZINC001191386213    0.0700
     11 N11        -7.0436    0.3941   51.2184 N.2     1  ZINC001191386213   -0.2500
     12 N12        -5.8837    0.9275   51.0805 N.pl3   1  ZINC001191386213   -0.3800
     13 C13        -5.7511    1.9805   51.9416 C.2     1  ZINC001191386213   -0.0400
     14 C14        -4.5748    2.8522   52.0931 C.2     1  ZINC001191386213    0.6100
     15 O15        -4.5512    3.6948   52.9700 O.2     1  ZINC001191386213   -0.5100
     16 N16        -3.5239    2.7168   51.2601 N.am    1  ZINC001191386213   -0.6200
     17 C17        -2.2912    3.5170   51.2988 C.3     1  ZINC001191386213    0.0800
     18 C18        -1.3901    3.0264   50.1460 C.3     1  ZINC001191386213   -0.1200
     19 C19        -2.4006    2.3633   49.1731 C.3     1  ZINC001191386213   -0.0600
     20 H20        -2.8777    3.1091   48.5373 H       1  ZINC001191386213    0.1000
     21 C21        -1.7318    1.2982   48.3430 C.ar    1  ZINC001191386213   -0.1100
     22 C22        -1.2976    0.1292   48.9381 C.ar    1  ZINC001191386213   -0.0900
     23 C23        -0.6838   -0.8482   48.1768 C.ar    1  ZINC001191386213   -0.1300
     24 C24        -0.5035   -0.6572   46.8197 C.ar    1  ZINC001191386213   -0.0900
     25 C25        -0.9367    0.5115   46.2223 C.ar    1  ZINC001191386213   -0.1500
     26 C26        -1.5573    1.4881   46.9824 C.ar    1  ZINC001191386213    0.1100
     27 F27        -1.9810    2.6309   46.3996 F       1  ZINC001191386213   -0.1400
     28 C28        -3.4175    1.7374   50.1634 C.3     1  ZINC001191386213    0.1200
     29 C29        -6.9418    2.0696   52.6371 C.2     1  ZINC001191386213   -0.1300
     30 C30        -9.7337    1.4354   53.5798 C.ar    1  ZINC001191386213   -0.1000
     31 H31       -12.2436    5.0646   55.8014 H       1  ZINC001191386213    0.1000
     32 H32       -13.3781    3.7235   56.0893 H       1  ZINC001191386213    0.0900
     33 H33       -11.8370    3.7917   56.9773 H       1  ZINC001191386213    0.0900
     34 H34       -12.0515    1.4024   55.7494 H       1  ZINC001191386213    0.4100
     35 H35       -12.7057   -0.1749   53.6908 H       1  ZINC001191386213    0.1300
     36 H36       -11.6268   -1.4785   51.9064 H       1  ZINC001191386213    0.1300
     37 H37        -9.3397   -0.9326   51.1874 H       1  ZINC001191386213    0.1300
     38 H38        -5.2027    0.6274   50.4583 H       1  ZINC001191386213    0.4400
     39 H39        -2.5293    4.5716   51.1601 H       1  ZINC001191386213    0.0700
     40 H40        -1.7846    3.3716   52.2529 H       1  ZINC001191386213    0.0800
     41 H41        -0.8867    3.8657   49.6661 H       1  ZINC001191386213    0.0900
     42 H42        -0.6659    2.2960   50.5068 H       1  ZINC001191386213    0.0900
     43 H43        -1.4372   -0.0209   49.9985 H       1  ZINC001191386213    0.1300
     44 H44        -0.3447   -1.7616   48.6427 H       1  ZINC001191386213    0.1300
     45 H45        -0.0237   -1.4212   46.2260 H       1  ZINC001191386213    0.1300
     46 H46        -0.7951    0.6610   45.1621 H       1  ZINC001191386213    0.1400
     47 H47        -3.0463    0.7824   50.5353 H       1  ZINC001191386213    0.0800
     48 H48        -4.3860    1.6069   49.6806 H       1  ZINC001191386213    0.0900
     49 H49        -7.2014    2.7855   53.4029 H       1  ZINC001191386213    0.1700
     50 H50        -9.2037    2.2503   54.0503 H       1  ZINC001191386213    0.1500
@<TRIPOS>BOND
     1     1     2    1
     2     1    31    1
     3     1    32    1
     4     1    33    1
     5     2     3    2
     6     2     4   am
     7     4     5    1
     8     4    34    1
     9     5    30   ar
    10     5     6   ar
    11     6     7   ar
    12     6    35    1
    13     7     8   ar
    14     7    36    1
    15     8     9   ar
    16     8    37    1
    17     9    10    1
    18     9    30   ar
    19    10    29    1
    20    10    11    2
    21    11    12    1
    22    12    13    1
    23    12    38    1
    24    13    14    1
    25    13    29    2
    26    14    15    2
    27    14    16   am
    28    16    28    1
    29    16    17    1
    30    17    18    1
    31    17    39    1
    32    17    40    1
    33    18    19    1
    34    18    41    1
    35    18    42    1
    36    19    20    1
    37    19    21    1
    38    19    28    1
    39    21    26   ar
    40    21    22   ar
    41    22    23   ar
    42    22    43    1
    43    23    24   ar
    44    23    44    1
    45    24    25   ar
    46    24    45    1
    47    25    26   ar
    48    25    46    1
    49    26    27    1
    50    28    47    1
    51    28    48    1
    52    29    49    1
    53    30    50    1
@<TRIPOS>SUBSTRUCTURE
     1 ZINC001191386213        1 TEMP              0 ****  ****    0 ROOT


##########                                Name:    ZINC000859608860
##########                DOCK_Rotatable_Bonds:                   8
##########                         Heavy_Atoms:                  24
##########                    Molecular_Weight:             394.268
##########                DOCK_Rotatable_Bonds:                   8
##########                       Formal_Charge:          -0.0200003
##########                     HBond_Acceptors:                   6
##########                        HBond_Donors:                   1
##########                         Heavy_Atoms:                  24
##########                          Grid_Score:          -32.959908
##########                     Grid_vdw_energy:          -32.214924
##########                      Grid_es_energy:           -0.744983
##########           Internal_energy_repulsive:            8.872382

@<TRIPOS>MOLECULE
ZINC000859608860
 44 45 1 0 0
SMALL
USER_CHARGES


@<TRIPOS>ATOM
      1 C1          1.7466    1.3740   44.0939 C.3     1  ZINC000859608860   -0.1400
      2 C2          0.7931    1.5257   45.2808 C.3     1  ZINC000859608860   -0.0800
      3 C3          1.5784    1.9862   46.5104 C.3     1  ZINC000859608860   -0.1400
      4 C4         -0.2802    2.5625   44.9433 C.3     1  ZINC000859608860   -0.1400
      5 C5          0.1274    0.1799   45.5754 C.3     1  ZINC000859608860    0.1300
      6 N6         -0.9185    0.3631   46.5847 N.am    1  ZINC000859608860   -0.7300
      7 C7         -0.7005   -0.0204   47.8582 C.2     1  ZINC000859608860    0.5100
      8 O8          0.3609   -0.5186   48.1683 O.2     1  ZINC000859608860   -0.5100
      9 C9         -1.7756    0.1696   48.8969 C.3     1  ZINC000859608860    0.0500
     10 O10        -2.6395    1.2686   48.5040 O.3     1  ZINC000859608860   -0.3100
     11 C11        -2.7716    2.2860   49.3783 C.2     1  ZINC000859608860    0.5600
     12 O12        -2.0731    3.2749   49.2700 O.2     1  ZINC000859608860   -0.5100
     13 C13        -3.7612    2.1995   50.4638 C.2     1  ZINC000859608860   -0.0400
     14 C14        -5.0036    1.6396   50.3797 C.2     1  ZINC000859608860    0.0500
     15 N15        -5.5787    1.7744   51.6056 N.pl3   1  ZINC000859608860   -0.4100
     16 C16        -6.8600    1.3381   51.9722 C.ar    1  ZINC000859608860    0.1400
     17 C17        -7.2794    0.0569   51.6408 C.ar    1  ZINC000859608860   -0.1200
     18 C18        -8.5417   -0.3707   52.0034 C.ar    1  ZINC000859608860   -0.0600
     19 C19        -9.3880    0.4768   52.6962 C.ar    1  ZINC000859608860   -0.1000
     20 Br20      -11.1155   -0.1119   53.1909 Br      1  ZINC000859608860   -0.0300
     21 C21        -8.9722    1.7540   53.0279 C.ar    1  ZINC000859608860   -0.0600
     22 C22        -7.7091    2.1847   52.6719 C.ar    1  ZINC000859608860   -0.1200
     23 C23        -4.6844    2.4096   52.4117 C.2     1  ZINC000859608860    0.2000
     24 N24        -3.6021    2.6568   51.7325 N.2     1  ZINC000859608860   -0.4300
     25 H25         2.5113    0.6353   44.3343 H       1  ZINC000859608860    0.0500
     26 H26         1.1871    1.0459   43.2179 H       1  ZINC000859608860    0.0600
     27 H27         2.2209    2.3327   43.8840 H       1  ZINC000859608860    0.0600
     28 H28         2.0527    2.9449   46.3005 H       1  ZINC000859608860    0.0600
     29 H29         0.8991    2.0944   47.3559 H       1  ZINC000859608860    0.0600
     30 H30         2.3431    1.2475   46.7508 H       1  ZINC000859608860    0.0500
     31 H31        -0.8398    2.2344   44.0673 H       1  ZINC000859608860    0.0600
     32 H32        -0.9595    2.6706   45.7888 H       1  ZINC000859608860    0.0600
     33 H33         0.1941    3.5213   44.7334 H       1  ZINC000859608860    0.0600
     34 H34        -0.3155   -0.2143   44.6607 H       1  ZINC000859608860    0.0700
     35 H35         0.8741   -0.5207   45.9488 H       1  ZINC000859608860    0.0700
     36 H36        -1.7678    0.7604   46.3365 H       1  ZINC000859608860    0.4000
     37 H37        -2.3649   -0.7435   48.9813 H       1  ZINC000859608860    0.1000
     38 H38        -1.3156    0.3953   49.8590 H       1  ZINC000859608860    0.1000
     39 H39        -5.4449    1.1789   49.5083 H       1  ZINC000859608860    0.2000
     40 H40        -6.6193   -0.6049   51.0997 H       1  ZINC000859608860    0.1400
     41 H41        -8.8684   -1.3672   51.7454 H       1  ZINC000859608860    0.1500
     42 H42        -9.6346    2.4137   53.5688 H       1  ZINC000859608860    0.1500
     43 H43        -7.3850    3.1817   52.9311 H       1  ZINC000859608860    0.1500
     44 H44        -4.8455    2.6639   53.4489 H       1  ZINC000859608860    0.2200
@<TRIPOS>BOND
     1     1     2    1
     2     1    25    1
     3     1    26    1
     4     1    27    1
     5     2     3    1
     6     2     4    1
     7     2     5    1
     8     3    28    1
     9     3    29    1
    10     3    30    1
    11     4    31    1
    12     4    32    1
    13     4    33    1
    14     5     6    1
    15     5    34    1
    16     5    35    1
    17     6     7   am
    18     6    36    1
    19     7     8    2
    20     7     9    1
    21     9    10    1
    22     9    37    1
    23     9    38    1
    24    10    11    1
    25    11    12    2
    26    11    13    1
    27    13    24    1
    28    13    14    2
    29    14    15    1
    30    14    39    1
    31    15    16    1
    32    15    23    1
    33    16    22   ar
    34    16    17   ar
    35    17    18   ar
    36    17    40    1
    37    18    19   ar
    38    18    41    1
    39    19    20    1
    40    19    21   ar
    41    21    22   ar
    42    21    42    1
    43    22    43    1
    44    23    24    2
    45    23    44    1
@<TRIPOS>SUBSTRUCTURE
     1 ZINC000859608860        1 TEMP              0 ****  ****    0 ROOT


##########                                Name:    ZINC000494558165
##########                DOCK_Rotatable_Bonds:                  11
##########                         Heavy_Atoms:                  28
##########                    Molecular_Weight:             409.506
##########                DOCK_Rotatable_Bonds:                  11
##########                       Formal_Charge:        -6.55651e-07
##########                     HBond_Acceptors:                   9
##########                        HBond_Donors:                   3
##########                         Heavy_Atoms:                  28
##########                          Grid_Score:          -32.942333
##########                     Grid_vdw_energy:          -32.176334
##########                      Grid_es_energy:           -0.766000
##########           Internal_energy_repulsive:           33.728951

@<TRIPOS>MOLECULE
ZINC000494558165
 55 57 1 0 0
SMALL
USER_CHARGES


@<TRIPOS>ATOM
      1 O1         -4.5000    2.9803   48.8018 O.2     1  ZINC000494558165   -0.4400
      2 C2         -3.8336    2.3473   49.5924 C.2     1  ZINC000494558165    0.5100
      3 C3         -2.4785    1.8261   49.1885 C.3     1  ZINC000494558165    0.0300
      4 N4         -1.4780    2.8902   49.3452 N.3     1  ZINC000494558165   -0.5000
      5 C5         -1.1549    3.1046   50.7621 C.3     1  ZINC000494558165    0.0500
      6 C6         -0.5593    4.5021   50.9436 C.3     1  ZINC000494558165   -0.1100
      7 C7         -0.2261    4.7267   52.4199 C.3     1  ZINC000494558165    0.0800
      8 O8         -1.3792    4.4473   53.2163 O.3     1  ZINC000494558165   -0.5700
      9 C9         -0.2672    2.5930   48.5682 C.3     1  ZINC000494558165    0.1200
     10 H10         0.6102    2.6112   49.2147 H       1  ZINC000494558165    0.1000
     11 C11        -0.1061    3.6093   47.4178 C.3     1  ZINC000494558165   -0.1200
     12 C12        -0.8163    2.8988   46.2460 C.3     1  ZINC000494558165   -0.0900
     13 C13        -0.7110    1.4211   46.5565 C.ar    1  ZINC000494558165   -0.0900
     14 C14        -0.8784    0.3178   45.7368 C.ar    1  ZINC000494558165   -0.1100
     15 C15        -0.7312   -0.9570   46.2483 C.ar    1  ZINC000494558165   -0.1100
     16 C16        -0.4157   -1.1327   47.5824 C.ar    1  ZINC000494558165   -0.1200
     17 C17        -0.2483   -0.0331   48.4018 C.ar    1  ZINC000494558165   -0.1000
     18 C18        -0.3944    1.2441   47.8932 C.ar    1  ZINC000494558165   -0.1300
     19 N19        -4.3023    2.1147   50.8345 N.am    1  ZINC000494558165   -0.6900
     20 C20        -5.5142    2.5808   51.1957 C.2     1  ZINC000494558165    0.7000
     21 O21        -6.1850    3.2098   50.4011 O.2     1  ZINC000494558165   -0.5200
     22 N22        -5.9821    2.3496   52.4384 N.am    1  ZINC000494558165   -0.7300
     23 C23        -7.3002    2.8547   52.8305 C.3     1  ZINC000494558165    0.1700
     24 H24        -7.5093    3.7837   52.2999 H       1  ZINC000494558165    0.1200
     25 C25        -8.3773    1.8102   52.4889 C.3     1  ZINC000494558165   -0.1400
     26 C26        -9.6718    2.2530   53.2183 C.3     1  ZINC000494558165   -0.5800
     27 S27        -9.0471    2.7666   54.8630 S.o2    1  ZINC000494558165    2.4000
     28 O28        -9.6765    3.9812   55.2477 O.2     1  ZINC000494558165   -0.9300
     29 O29        -9.0645    1.6509   55.7429 O.2     1  ZINC000494558165   -0.9300
     30 C30        -7.3265    3.1089   54.3508 C.3     1  ZINC000494558165   -0.6200
     31 H31        -2.2112    0.9799   49.8215 H       1  ZINC000494558165    0.0700
     32 H32        -2.5081    1.5057   48.1471 H       1  ZINC000494558165    0.1200
     33 H33        -2.0624    3.0160   51.3592 H       1  ZINC000494558165    0.0900
     34 H34        -0.4318    2.3565   51.0870 H       1  ZINC000494558165    0.0400
     35 H35         0.3498    4.5898   50.3485 H       1  ZINC000494558165    0.0700
     36 H36        -1.2814    5.2501   50.6162 H       1  ZINC000494558165    0.0800
     37 H37         0.5877    4.0636   52.7136 H       1  ZINC000494558165    0.0500
     38 H38         0.0771    5.7628   52.5704 H       1  ZINC000494558165    0.0400
     39 H39        -1.6984    3.5377   53.1409 H       1  ZINC000494558165    0.3800
     40 H40        -0.6026    4.5492   47.6589 H       1  ZINC000494558165    0.0900
     41 H41         0.9472    3.7733   47.1904 H       1  ZINC000494558165    0.0800
     42 H42        -1.8622    3.2016   46.1980 H       1  ZINC000494558165    0.0800
     43 H43        -0.3129    3.1245   45.3059 H       1  ZINC000494558165    0.0800
     44 H44        -1.1252    0.4543   44.6943 H       1  ZINC000494558165    0.1200
     45 H45        -0.8620   -1.8155   45.6062 H       1  ZINC000494558165    0.1300
     46 H46        -0.3006   -2.1286   47.9840 H       1  ZINC000494558165    0.1200
     47 H47        -0.0021   -0.1712   49.4443 H       1  ZINC000494558165    0.1200
     48 H48        -3.7674    1.6117   51.4684 H       1  ZINC000494558165    0.4100
     49 H49        -5.4463    1.8486   53.0730 H       1  ZINC000494558165    0.4000
     50 H50        -8.5452    1.7855   51.4121 H       1  ZINC000494558165    0.1100
     51 H51        -8.0680    0.8262   52.8415 H       1  ZINC000494558165    0.0900
     52 H52       -10.1387    3.0921   52.7024 H       1  ZINC000494558165    0.1400
     53 H53       -10.3677    1.4193   53.3118 H       1  ZINC000494558165    0.1400
     54 H54        -6.6386    2.4346   54.8607 H       1  ZINC000494558165    0.1500
     55 H55        -7.0679    4.1463   54.5627 H       1  ZINC000494558165    0.1500
@<TRIPOS>BOND
     1     1     2    2
     2     2     3    1
     3     2    19   am
     4     3     4    1
     5     3    31    1
     6     3    32    1
     7     4     5    1
     8     4     9    1
     9     5     6    1
    10     5    33    1
    11     5    34    1
    12     6     7    1
    13     6    35    1
    14     6    36    1
    15     7     8    1
    16     7    37    1
    17     7    38    1
    18     8    39    1
    19     9    10    1
    20     9    18    1
    21     9    11    1
    22    11    12    1
    23    11    40    1
    24    11    41    1
    25    12    13    1
    26    12    42    1
    27    12    43    1
    28    13    18   ar
    29    13    14   ar
    30    14    15   ar
    31    14    44    1
    32    15    16   ar
    33    15    45    1
    34    16    17   ar
    35    16    46    1
    36    17    18   ar
    37    17    47    1
    38    19    20   am
    39    19    48    1
    40    20    21    2
    41    20    22   am
    42    22    23    1
    43    22    49    1
    44    23    24    1
    45    23    30    1
    46    23    25    1
    47    25    26    1
    48    25    50    1
    49    25    51    1
    50    26    27    1
    51    26    52    1
    52    26    53    1
    53    27    28    2
    54    27    29    2
    55    27    30    1
    56    30    54    1
    57    30    55    1
@<TRIPOS>SUBSTRUCTURE
     1 ZINC000494558165        1 TEMP              0 ****  ****    0 ROOT


##########                                Name:    ZINC001009984555
##########                DOCK_Rotatable_Bonds:                   7
##########                         Heavy_Atoms:                  23
##########                    Molecular_Weight:             338.446
##########                DOCK_Rotatable_Bonds:                   7
##########                       Formal_Charge:           0.0400002
##########                     HBond_Acceptors:                   6
##########                        HBond_Donors:                   1
##########                         Heavy_Atoms:                  23
##########                          Grid_Score:          -32.936028
##########                     Grid_vdw_energy:          -32.111683
##########                      Grid_es_energy:           -0.824346
##########           Internal_energy_repulsive:           14.027922

@<TRIPOS>MOLECULE
ZINC001009984555
 46 47 1 0 0
SMALL
USER_CHARGES


@<TRIPOS>ATOM
      1 C1        -11.6563   -0.3253   53.9116 C.3     1  ZINC001009984555   -0.1400
      2 S2        -10.1055   -0.8633   53.1395 S.3     1  ZINC001009984555   -0.1800
      3 C3         -9.3882    0.6908   52.5387 C.3     1  ZINC001009984555   -0.1300
      4 C4         -8.0525    0.4132   51.8985 C.2     1  ZINC001009984555    0.5500
      5 O5         -7.8275   -0.6750   51.4124 O.2     1  ZINC001009984555   -0.5100
      6 N6         -7.1079    1.3740   51.8661 N.am    1  ZINC001009984555   -0.6100
      7 C7         -5.7674    1.2411   51.2672 C.3     1  ZINC001009984555    0.1000
      8 C8         -5.3397    2.6906   50.9270 C.3     1  ZINC001009984555   -0.1100
      9 H9         -5.7847    3.0191   49.9878 H       1  ZINC001009984555    0.1000
     10 C10        -3.8155    2.8163   50.8818 C.3     1  ZINC001009984555    0.1300
     11 N11        -3.3193    2.2860   49.6094 N.am    1  ZINC001009984555   -0.7300
     12 C12        -1.9978    2.2955   49.3448 C.2     1  ZINC001009984555    0.5600
     13 O13        -1.2175    2.7428   50.1625 O.2     1  ZINC001009984555   -0.5200
     14 C14        -1.4972    1.7619   48.0600 C.ar    1  ZINC001009984555   -0.1200
     15 C15        -1.3472    2.6085   46.9608 C.ar    1  ZINC001009984555   -0.0900
     16 C16        -0.8796    2.1055   45.7639 C.ar    1  ZINC001009984555   -0.1000
     17 C17        -0.5597    0.7648   45.6509 C.ar    1  ZINC001009984555   -0.1200
     18 C18        -0.7060   -0.0823   46.7380 C.ar    1  ZINC001009984555    0.0900
     19 F19        -0.3916   -1.3910   46.6205 F       1  ZINC001009984555   -0.1300
     20 C20        -1.1673    0.4109   47.9434 C.ar    1  ZINC001009984555   -0.0500
     21 C21        -1.3262   -0.5104   49.1254 C.3     1  ZINC001009984555   -0.1200
     22 C22        -5.9281    3.4788   52.1270 C.3     1  ZINC001009984555   -0.1200
     23 C23        -7.2461    2.7303   52.4164 C.3     1  ZINC001009984555    0.1400
     24 H24        -7.4115    2.6733   53.4923 H       1  ZINC001009984555    0.0800
     25 C25        -8.4149    3.4573   51.7485 C.3     1  ZINC001009984555   -0.1700
     26 H26       -12.2825    0.1645   53.1660 H       1  ZINC001009984555    0.0800
     27 H27       -12.1811   -1.1914   54.3145 H       1  ZINC001009984555    0.1100
     28 H28       -11.4370    0.3743   54.7182 H       1  ZINC001009984555    0.0800
     29 H29       -10.0569    1.1396   51.8042 H       1  ZINC001009984555    0.1100
     30 H30        -9.2545    1.3766   53.3753 H       1  ZINC001009984555    0.1100
     31 H31        -5.0742    0.7991   51.9830 H       1  ZINC001009984555    0.0800
     32 H32        -5.8148    0.6370   50.3611 H       1  ZINC001009984555    0.0800
     33 H33        -3.5345    3.8656   50.9723 H       1  ZINC001009984555    0.0800
     34 H34        -3.3797    2.2511   51.7056 H       1  ZINC001009984555    0.0800
     35 H35        -3.9419    1.9279   48.9574 H       1  ZINC001009984555    0.4000
     36 H36        -1.5971    3.6557   47.0466 H       1  ZINC001009984555    0.1300
     37 H37        -0.7635    2.7606   44.9131 H       1  ZINC001009984555    0.1400
     38 H38        -0.1949    0.3763   44.7115 H       1  ZINC001009984555    0.1400
     39 H39        -0.4456   -0.4376   49.7637 H       1  ZINC001009984555    0.0800
     40 H40        -2.2113   -0.2235   49.6933 H       1  ZINC001009984555    0.1000
     41 H41        -1.4366   -1.5363   48.7742 H       1  ZINC001009984555    0.0600
     42 H42        -5.2575    3.4324   52.9850 H       1  ZINC001009984555    0.0900
     43 H43        -6.1281    4.5134   51.8480 H       1  ZINC001009984555    0.0900
     44 H44        -8.2517    3.4947   50.6713 H       1  ZINC001009984555    0.0600
     45 H45        -9.3419    2.9233   51.9571 H       1  ZINC001009984555    0.0700
     46 H46        -8.4838    4.4718   52.1409 H       1  ZINC001009984555    0.0700
@<TRIPOS>BOND
     1     1     2    1
     2     1    26    1
     3     1    27    1
     4     1    28    1
     5     2     3    1
     6     3     4    1
     7     3    29    1
     8     3    30    1
     9     4     5    2
    10     4     6   am
    11     6    23    1
    12     6     7    1
    13     7     8    1
    14     7    31    1
    15     7    32    1
    16     8     9    1
    17     8    10    1
    18     8    22    1
    19    10    11    1
    20    10    33    1
    21    10    34    1
    22    11    12   am
    23    11    35    1
    24    12    13    2
    25    12    14    1
    26    14    20   ar
    27    14    15   ar
    28    15    16   ar
    29    15    36    1
    30    16    17   ar
    31    16    37    1
    32    17    18   ar
    33    17    38    1
    34    18    19    1
    35    18    20   ar
    36    20    21    1
    37    21    39    1
    38    21    40    1
    39    21    41    1
    40    22    23    1
    41    22    42    1
    42    22    43    1
    43    23    24    1
    44    23    25    1
    45    25    44    1
    46    25    45    1
    47    25    46    1
@<TRIPOS>SUBSTRUCTURE
     1 ZINC001009984555        1 TEMP              0 ****  ****    0 ROOT


##########                                Name:    ZINC000546142192
##########                DOCK_Rotatable_Bonds:                  12
##########                         Heavy_Atoms:                  31
##########                    Molecular_Weight:             420.511
##########                DOCK_Rotatable_Bonds:                  12
##########                       Formal_Charge:          -0.0599997
##########                     HBond_Acceptors:                   7
##########                        HBond_Donors:                   2
##########                         Heavy_Atoms:                  31
##########                          Grid_Score:          -32.927849
##########                     Grid_vdw_energy:          -32.367279
##########                      Grid_es_energy:           -0.560571
##########           Internal_energy_repulsive:           13.938848

@<TRIPOS>MOLECULE
ZINC000546142192
 59 61 1 0 0
SMALL
USER_CHARGES


@<TRIPOS>ATOM
      1 C1          2.8431   -0.0410   42.8761 C.3     1  ZINC000546142192    0.0300
      2 O2          1.7461    0.4260   43.7049 O.3     1  ZINC000546142192   -0.3600
      3 C3          2.0628    0.9297   44.9081 C.2     1  ZINC000546142192    0.4600
      4 O4          2.8921    0.3799   45.5938 O.2     1  ZINC000546142192   -0.5100
      5 C5          1.3844    2.1807   45.4037 C.3     1  ZINC000546142192   -0.0800
      6 H6          1.6316    2.3365   46.4536 H       1  ZINC000546142192    0.1100
      7 C7          1.8638    3.3799   44.5833 C.3     1  ZINC000546142192   -0.1500
      8 C8         -0.1310    2.0327   45.2530 C.3     1  ZINC000546142192   -0.0600
      9 C9         -0.7795    2.0967   46.6120 C.ar    1  ZINC000546142192   -0.1000
     10 C10        -1.4485    0.9937   47.1098 C.ar    1  ZINC000546142192   -0.0900
     11 C11        -2.0435    1.0490   48.3550 C.ar    1  ZINC000546142192   -0.1200
     12 C12        -1.9692    2.2140   49.1072 C.ar    1  ZINC000546142192    0.1600
     13 N13        -2.5705    2.2732   50.3695 N.am    1  ZINC000546142192   -0.6900
     14 C14        -3.9016    2.4569   50.4738 C.2     1  ZINC000546142192    0.7100
     15 O15        -4.5800    2.5711   49.4712 O.2     1  ZINC000546142192   -0.5700
     16 N16        -4.4808    2.5139   51.6894 N.am    1  ZINC000546142192   -0.7400
     17 C17        -5.9275    2.7152   51.8028 C.3     1  ZINC000546142192    0.2300
     18 C18        -6.6257    1.3806   51.7534 C.2     1  ZINC000546142192    0.1800
     19 N19        -6.0735    0.2451   51.4242 N.2     1  ZINC000546142192   -0.4700
     20 C20        -6.9924   -0.7296   51.4911 C.2     1  ZINC000546142192   -0.0300
     21 C21        -8.1585   -0.1771   51.8765 C.2     1  ZINC000546142192   -0.0400
     22 N22        -7.9251    1.1607   52.0482 N.pl3   1  ZINC000546142192   -0.4500
     23 C23        -8.9043    2.1675   52.4655 C.3     1  ZINC000546142192    0.1100
     24 C24        -8.9365    2.2450   53.9931 C.3     1  ZINC000546142192   -0.0900
     25 C25        -9.8545    3.3613   54.4202 C.ar    1  ZINC000546142192   -0.0900
     26 C26        -9.6118    4.0437   55.5976 C.ar    1  ZINC000546142192   -0.1100
     27 C27       -10.4539    5.0676   55.9892 C.ar    1  ZINC000546142192   -0.1200
     28 C28       -11.5385    5.4093   55.2031 C.ar    1  ZINC000546142192   -0.1200
     29 C29       -11.7806    4.7276   54.0253 C.ar    1  ZINC000546142192   -0.1200
     30 C30       -10.9361    3.7065   53.6315 C.ar    1  ZINC000546142192   -0.1100
     31 C31        -1.2965    3.3199   48.6044 C.ar    1  ZINC000546142192   -0.1500
     32 C32        -0.6992    3.2565   47.3607 C.ar    1  ZINC000546142192   -0.0900
     33 H33         3.3774   -0.8366   43.3953 H       1  ZINC000546142192    0.0600
     34 H34         2.4498   -0.4222   41.9338 H       1  ZINC000546142192    0.1000
     35 H35         3.5255    0.7853   42.6773 H       1  ZINC000546142192    0.0600
     36 H36         1.6165    3.2241   43.5333 H       1  ZINC000546142192    0.0600
     37 H37         1.3729    4.2847   44.9417 H       1  ZINC000546142192    0.0800
     38 H38         2.9433    3.4853   44.6906 H       1  ZINC000546142192    0.0700
     39 H39        -0.5147    2.8399   44.6291 H       1  ZINC000546142192    0.0800
     40 H40        -0.3580    1.0738   44.7870 H       1  ZINC000546142192    0.0800
     41 H41        -1.5063    0.0881   46.5242 H       1  ZINC000546142192    0.1300
     42 H42        -2.5662    0.1874   48.7431 H       1  ZINC000546142192    0.1400
     43 H43        -2.0293    2.1821   51.1693 H       1  ZINC000546142192    0.4100
     44 H44        -3.9398    2.4215   52.4892 H       1  ZINC000546142192    0.4000
     45 H45        -6.1527    3.2083   52.7485 H       1  ZINC000546142192    0.0800
     46 H46        -6.2736    3.3371   50.9773 H       1  ZINC000546142192    0.1000
     47 H47        -6.8263   -1.7745   51.2740 H       1  ZINC000546142192    0.1700
     48 H48        -9.0964   -0.6913   52.0255 H       1  ZINC000546142192    0.1800
     49 H49        -8.6230    3.1386   52.0581 H       1  ZINC000546142192    0.1000
     50 H50        -9.8910    1.8901   52.0948 H       1  ZINC000546142192    0.0900
     51 H51        -9.3005    1.3004   54.3974 H       1  ZINC000546142192    0.0800
     52 H52        -7.9314    2.4375   54.3684 H       1  ZINC000546142192    0.0800
     53 H53        -8.7645    3.7766   56.2117 H       1  ZINC000546142192    0.1200
     54 H54       -10.2646    5.6002   56.9095 H       1  ZINC000546142192    0.1200
     55 H55       -12.1968    6.2089   55.5096 H       1  ZINC000546142192    0.1200
     56 H56       -12.6282    4.9944   53.4114 H       1  ZINC000546142192    0.1200
     57 H57       -11.1253    3.1738   52.7113 H       1  ZINC000546142192    0.1200
     58 H58        -1.2370    4.2274   49.1871 H       1  ZINC000546142192    0.1300
     59 H59        -0.1755    4.1162   46.9693 H       1  ZINC000546142192    0.1300
@<TRIPOS>BOND
     1     1     2    1
     2     1    33    1
     3     1    34    1
     4     1    35    1
     5     2     3    1
     6     3     4    2
     7     3     5    1
     8     5     6    1
     9     5     7    1
    10     5     8    1
    11     7    36    1
    12     7    37    1
    13     7    38    1
    14     8     9    1
    15     8    39    1
    16     8    40    1
    17     9    32   ar
    18     9    10   ar
    19    10    11   ar
    20    10    41    1
    21    11    12   ar
    22    11    42    1
    23    12    13    1
    24    12    31   ar
    25    13    14   am
    26    13    43    1
    27    14    15    2
    28    14    16   am
    29    16    17    1
    30    16    44    1
    31    17    18    1
    32    17    45    1
    33    17    46    1
    34    18    22    1
    35    18    19    2
    36    19    20    1
    37    20    21    2
    38    20    47    1
    39    21    22    1
    40    21    48    1
    41    22    23    1
    42    23    24    1
    43    23    49    1
    44    23    50    1
    45    24    25    1
    46    24    51    1
    47    24    52    1
    48    25    30   ar
    49    25    26   ar
    50    26    27   ar
    51    26    53    1
    52    27    28   ar
    53    27    54    1
    54    28    29   ar
    55    28    55    1
    56    29    30   ar
    57    29    56    1
    58    30    57    1
    59    31    32   ar
    60    31    58    1
    61    32    59    1
@<TRIPOS>SUBSTRUCTURE
     1 ZINC000546142192        1 TEMP              0 ****  ****    0 ROOT


##########                                Name:    ZINC000762187039
##########                DOCK_Rotatable_Bonds:                   9
##########                         Heavy_Atoms:                  25
##########                    Molecular_Weight:             354.473
##########                DOCK_Rotatable_Bonds:                   9
##########                       Formal_Charge:        -1.78814e-07
##########                     HBond_Acceptors:                   5
##########                        HBond_Donors:                   1
##########                         Heavy_Atoms:                  25
##########                          Grid_Score:          -32.913708
##########                     Grid_vdw_energy:          -32.275440
##########                      Grid_es_energy:           -0.638266
##########           Internal_energy_repulsive:            4.669040

@<TRIPOS>MOLECULE
ZINC000762187039
 47 49 1 0 0
SMALL
USER_CHARGES


@<TRIPOS>ATOM
      1 C1        -13.0840   -1.3096   56.3053 C.3     1  ZINC000762187039   -0.0800
      2 C2        -12.6775   -0.7049   54.9860 C.2     1  ZINC000762187039    0.0500
      3 N3        -11.4620   -0.4598   54.6294 N.2     1  ZINC000762187039   -0.4700
      4 C4        -11.2812    0.0721   53.4373 C.2     1  ZINC000762187039    0.0700
      5 C5         -9.9169    0.4091   52.8933 C.3     1  ZINC000762187039   -0.0300
      6 C6         -9.3581   -0.7965   52.1350 C.3     1  ZINC000762187039   -0.1300
      7 C7         -7.9598   -0.4897   51.6640 C.2     1  ZINC000762187039    0.5200
      8 O8         -7.1870   -1.3943   51.4289 O.2     1  ZINC000762187039   -0.5400
      9 N9         -7.5681    0.7900   51.5043 N.am    1  ZINC000762187039   -0.7300
     10 C10        -6.2083    1.0882   51.0481 C.3     1  ZINC000762187039    0.1200
     11 C11        -5.7963    2.4754   51.5451 C.3     1  ZINC000762187039   -0.1300
     12 C12        -4.2762    2.6204   51.4503 C.3     1  ZINC000762187039    0.0600
     13 O13        -3.8526    2.3333   50.1161 O.3     1  ZINC000762187039   -0.3100
     14 C14        -2.5350    2.0555   49.9335 C.ar    1  ZINC000762187039    0.1300
     15 C15        -1.5700    2.9605   50.3853 C.ar    1  ZINC000762187039   -0.1900
     16 C16        -0.2436    2.7105   50.2172 C.ar    1  ZINC000762187039   -0.0600
     17 C17         0.1672    1.5263   49.5810 C.ar    1  ZINC000762187039   -0.0800
     18 C18         1.5290    1.2360   49.3912 C.ar    1  ZINC000762187039   -0.0900
     19 C19         1.8914    0.0798   48.7715 C.ar    1  ZINC000762187039   -0.1300
     20 C20         0.9312   -0.8244   48.3205 C.ar    1  ZINC000762187039   -0.1000
     21 C21        -0.3966   -0.5772   48.4865 C.ar    1  ZINC000762187039   -0.1200
     22 C22        -0.8096    0.6068   49.1224 C.ar    1  ZINC000762187039   -0.0100
     23 C23        -2.1706    0.8928   49.3158 C.ar    1  ZINC000762187039   -0.1500
     24 C24       -12.4070    0.2877   52.7501 C.2     1  ZINC000762187039   -0.2600
     25 S25       -13.7596   -0.2510   53.7426 S.3     1  ZINC000762187039    0.1200
     26 H26       -14.1688   -1.4101   56.3399 H       1  ZINC000762187039    0.0800
     27 H27       -12.6245   -2.2922   56.4115 H       1  ZINC000762187039    0.0900
     28 H28       -12.7529   -0.6637   57.1185 H       1  ZINC000762187039    0.0900
     29 H29        -9.9955    1.2596   52.2161 H       1  ZINC000762187039    0.0900
     30 H30        -9.2493    0.6613   53.7173 H       1  ZINC000762187039    0.0900
     31 H31        -9.3370   -1.6633   52.7956 H       1  ZINC000762187039    0.0900
     32 H32        -9.9924   -1.0105   51.2749 H       1  ZINC000762187039    0.1000
     33 H33        -8.1866    1.5134   51.6913 H       1  ZINC000762187039    0.4000
     34 H34        -5.5202    0.3414   51.4441 H       1  ZINC000762187039    0.0700
     35 H35        -6.1780    1.0689   49.9587 H       1  ZINC000762187039    0.0700
     36 H36        -6.2732    3.2382   50.9296 H       1  ZINC000762187039    0.0800
     37 H37        -6.1090    2.5975   52.5821 H       1  ZINC000762187039    0.0800
     38 H38        -3.9916    3.6399   51.7104 H       1  ZINC000762187039    0.0700
     39 H39        -3.8010    1.9233   52.1404 H       1  ZINC000762187039    0.0700
     40 H40        -1.8821    3.8714   50.8746 H       1  ZINC000762187039    0.1300
     41 H41         0.4908    3.4189   50.5706 H       1  ZINC000762187039    0.1300
     42 H42         2.2843    1.9271   49.7351 H       1  ZINC000762187039    0.1300
     43 H43         2.9388   -0.1405   48.6268 H       1  ZINC000762187039    0.1200
     44 H44         1.2458   -1.7345   47.8315 H       1  ZINC000762187039    0.1200
     45 H45        -1.1294   -1.2868   48.1320 H       1  ZINC000762187039    0.1300
     46 H46        -2.9251    0.1993   48.9750 H       1  ZINC000762187039    0.1300
     47 H47       -12.4754    0.7133   51.7600 H       1  ZINC000762187039    0.1800
@<TRIPOS>BOND
     1     1     2    1
     2     1    26    1
     3     1    27    1
     4     1    28    1
     5     2    25    1
     6     2     3    2
     7     3     4    1
     8     4     5    1
     9     4    24    2
    10     5     6    1
    11     5    29    1
    12     5    30    1
    13     6     7    1
    14     6    31    1
    15     6    32    1
    16     7     8    2
    17     7     9   am
    18     9    10    1
    19     9    33    1
    20    10    11    1
    21    10    34    1
    22    10    35    1
    23    11    12    1
    24    11    36    1
    25    11    37    1
    26    12    13    1
    27    12    38    1
    28    12    39    1
    29    13    14    1
    30    14    23   ar
    31    14    15   ar
    32    15    16   ar
    33    15    40    1
    34    16    17   ar
    35    16    41    1
    36    17    22   ar
    37    17    18   ar
    38    18    19   ar
    39    18    42    1
    40    19    20   ar
    41    19    43    1
    42    20    21   ar
    43    20    44    1
    44    21    22   ar
    45    21    45    1
    46    22    23   ar
    47    23    46    1
    48    24    25    1
    49    24    47    1
@<TRIPOS>SUBSTRUCTURE
     1 ZINC000762187039        1 TEMP              0 ****  ****    0 ROOT


##########                                Name:    ZINC000174621331
##########                DOCK_Rotatable_Bonds:                   8
##########                         Heavy_Atoms:                  25
##########                    Molecular_Weight:             366.438
##########                DOCK_Rotatable_Bonds:                   8
##########                       Formal_Charge:        -5.96046e-08
##########                     HBond_Acceptors:                   8
##########                        HBond_Donors:                   3
##########                         Heavy_Atoms:                  25
##########                          Grid_Score:          -32.895851
##########                     Grid_vdw_energy:          -32.735535
##########                      Grid_es_energy:           -0.160315
##########           Internal_energy_repulsive:           11.538211

@<TRIPOS>MOLECULE
ZINC000174621331
 47 48 1 0 0
SMALL
USER_CHARGES


@<TRIPOS>ATOM
      1 C1         -8.3903   -0.4198   52.0738 C.3     1  ZINC000174621331    0.0300
      2 O2         -7.4399    0.6465   52.1167 O.3     1  ZINC000174621331   -0.3800
      3 C3         -6.3733    0.5126   51.1751 C.3     1  ZINC000174621331    0.0500
      4 C4         -5.4212    1.7025   51.3105 C.3     1  ZINC000174621331    0.2400
      5 H5         -5.0440    1.7517   52.3320 H       1  ZINC000174621331    0.1300
      6 N6         -4.2991    1.5381   50.3830 N.am    1  ZINC000174621331   -0.7200
      7 C7         -3.1416    2.1925   50.6030 C.2     1  ZINC000174621331    0.5600
      8 O8         -3.0291    2.9202   51.5701 O.2     1  ZINC000174621331   -0.5300
      9 C9         -2.0086    2.0252   49.6681 C.ar    1  ZINC000174621331   -0.1600
     10 C10        -1.3183    3.1427   49.1964 C.ar    1  ZINC000174621331   -0.0200
     11 C11        -0.2616    2.9796   48.3244 C.ar    1  ZINC000174621331   -0.1100
     12 C12         0.4850    4.1850   47.8141 C.3     1  ZINC000174621331   -0.1200
     13 C13         0.1144    1.7119   47.9178 C.ar    1  ZINC000174621331    0.0400
     14 C14         1.2700    1.5413   46.9656 C.3     1  ZINC000174621331   -0.1600
     15 C15        -0.5656    0.5996   48.3821 C.ar    1  ZINC000174621331   -0.6800
     16 S16        -0.0781   -1.0106   47.8584 S.o2    1  ZINC000174621331    2.7000
     17 N17        -0.8506   -2.0995   48.8382 N.am    1  ZINC000174621331   -1.2500
     18 O18        -0.6175   -1.1895   46.5561 O.2     1  ZINC000174621331   -0.9500
     19 O19         1.3085   -1.1239   48.1476 O.2     1  ZINC000174621331   -0.9600
     20 C20        -1.6210    0.7485   49.2576 C.ar    1  ZINC000174621331    0.0400
     21 C21        -6.1590    2.9757   50.9855 C.2     1  ZINC000174621331   -0.0200
     22 C22        -6.2686    3.5319   49.7656 C.2     1  ZINC000174621331   -0.1900
     23 C23        -7.0393    4.7072   49.9191 C.2     1  ZINC000174621331   -0.2100
     24 C24        -7.3546    4.7990   51.2235 C.2     1  ZINC000174621331    0.0000
     25 C25        -8.1713    5.8952   51.8579 C.3     1  ZINC000174621331   -0.0800
     26 O26        -6.8237    3.7443   51.8636 O.3     1  ZINC000174621331   -0.1600
     27 H27        -8.8405   -0.4657   51.0822 H       1  ZINC000174621331    0.0400
     28 H28        -7.8881   -1.3631   52.2887 H       1  ZINC000174621331    0.0400
     29 H29        -9.1673   -0.2441   52.8179 H       1  ZINC000174621331    0.0900
     30 H30        -5.8299   -0.4117   51.3708 H       1  ZINC000174621331    0.0700
     31 H31        -6.7817    0.4871   50.1648 H       1  ZINC000174621331    0.0700
     32 H32        -4.3892    0.9583   49.6106 H       1  ZINC000174621331    0.4100
     33 H33        -1.6109    4.1329   49.5130 H       1  ZINC000174621331    0.1400
     34 H34         1.3120    4.4120   48.4870 H       1  ZINC000174621331    0.0800
     35 H35         0.8743    3.9764   46.8175 H       1  ZINC000174621331    0.0800
     36 H36        -0.1911    5.0388   47.7686 H       1  ZINC000174621331    0.0700
     37 H37         2.1953    1.4367   47.5322 H       1  ZINC000174621331    0.1100
     38 H38         1.1124    0.6494   46.3591 H       1  ZINC000174621331    0.0700
     39 H39         1.3379    2.4145   46.3168 H       1  ZINC000174621331    0.0900
     40 H40        -0.6977   -2.0839   49.7959 H       1  ZINC000174621331    0.4200
     41 H41        -1.4560   -2.7530   48.4543 H       1  ZINC000174621331    0.4200
     42 H42        -2.1506   -0.1204   49.6195 H       1  ZINC000174621331    0.1600
     43 H43        -5.8480    3.1536   48.8457 H       1  ZINC000174621331    0.1500
     44 H44        -7.3205    5.3989   49.1387 H       1  ZINC000174621331    0.1500
     45 H45        -9.2255    5.6188   51.8416 H       1  ZINC000174621331    0.0800
     46 H46        -7.8490    6.0380   52.8892 H       1  ZINC000174621331    0.0800
     47 H47        -8.0300    6.8219   51.3015 H       1  ZINC000174621331    0.0900
@<TRIPOS>BOND
     1     1     2    1
     2     1    27    1
     3     1    28    1
     4     1    29    1
     5     2     3    1
     6     3     4    1
     7     3    30    1
     8     3    31    1
     9     4     5    1
    10     4     6    1
    11     4    21    1
    12     6     7   am
    13     6    32    1
    14     7     8    2
    15     7     9    1
    16     9    20   ar
    17     9    10   ar
    18    10    11   ar
    19    10    33    1
    20    11    12    1
    21    11    13   ar
    22    12    34    1
    23    12    35    1
    24    12    36    1
    25    13    14    1
    26    13    15   ar
    27    14    37    1
    28    14    38    1
    29    14    39    1
    30    15    16    1
    31    15    20   ar
    32    16    17   am
    33    16    18    2
    34    16    19    2
    35    17    40    1
    36    17    41    1
    37    20    42    1
    38    21    26    1
    39    21    22    2
    40    22    23    1
    41    22    43    1
    42    23    24    2
    43    23    44    1
    44    24    25    1
    45    24    26    1
    46    25    45    1
    47    25    46    1
    48    25    47    1
@<TRIPOS>SUBSTRUCTURE
     1 ZINC000174621331        1 TEMP              0 ****  ****    0 ROOT


##########                                Name:    ZINC000655982608
##########                DOCK_Rotatable_Bonds:                   5
##########                         Heavy_Atoms:                  29
##########                    Molecular_Weight:             388.469
##########                DOCK_Rotatable_Bonds:                   5
##########                       Formal_Charge:          -0.0200006
##########                     HBond_Acceptors:                   6
##########                        HBond_Donors:                   0
##########                         Heavy_Atoms:                  29
##########                          Grid_Score:          -32.882385
##########                     Grid_vdw_energy:          -31.208078
##########                      Grid_es_energy:           -1.674306
##########           Internal_energy_repulsive:           24.630709

@<TRIPOS>MOLECULE
ZINC000655982608
 53 57 1 0 0
SMALL
USER_CHARGES


@<TRIPOS>ATOM
      1 C1         -0.4414   -0.1395   46.6068 C.3     1  ZINC000655982608   -0.1900
      2 C2         -0.0407    0.8672   47.6870 C.3     1  ZINC000655982608    0.0800
      3 H3         -0.2814    1.8758   47.3510 H       1  ZINC000655982608    0.1000
      4 C4         -0.8058    0.5630   48.9766 C.3     1  ZINC000655982608   -0.0300
      5 C5         -2.0772    1.3715   49.0090 C.2     1  ZINC000655982608    0.2000
      6 N6         -3.0290    1.2944   49.9076 N.2     1  ZINC000655982608   -0.4800
      7 C7         -3.9551    2.1945   49.5323 C.2     1  ZINC000655982608    0.1700
      8 C8         -5.2507    2.4904   50.2428 C.3     1  ZINC000655982608   -0.0100
      9 H9         -5.9066    3.0964   49.6177 H       1  ZINC000655982608    0.1300
     10 C10        -5.9536    1.1840   50.6787 C.3     1  ZINC000655982608   -0.1400
     11 C11        -6.5660    1.5219   52.0202 C.2     1  ZINC000655982608    0.5200
     12 O12        -7.4299    0.8741   52.5725 O.2     1  ZINC000655982608   -0.5000
     13 N13        -6.0131    2.6446   52.5111 N.am    1  ZINC000655982608   -0.5600
     14 C14        -6.3663    3.2299   53.7319 C.ar    1  ZINC000655982608    0.1600
     15 C15        -7.6955    3.2537   54.1335 C.ar    1  ZINC000655982608   -0.1600
     16 C16        -8.0409    3.8322   55.3391 C.ar    1  ZINC000655982608   -0.0900
     17 C17        -7.0649    4.3879   56.1458 C.ar    1  ZINC000655982608   -0.1400
     18 C18        -5.7406    4.3663   55.7487 C.ar    1  ZINC000655982608   -0.0900
     19 C19        -5.3878    3.7833   54.5472 C.ar    1  ZINC000655982608   -0.1600
     20 C20        -4.9916    3.1782   51.6015 C.3     1  ZINC000655982608    0.1100
     21 N21        -3.5273    2.7625   48.4446 N.2     1  ZINC000655982608   -0.3700
     22 O22        -2.4474    2.3080   48.1303 O.3     1  ZINC000655982608    0.0900
     23 N23         1.4030    0.7665   47.9389 N.3     1  ZINC000655982608   -0.4700
     24 C24         1.7254   -0.4664   48.6897 C.3     1  ZINC000655982608    0.0300
     25 C25         3.1433   -0.8119   48.1797 C.3     1  ZINC000655982608   -0.0800
     26 C26         3.1747   -0.1660   46.8088 C.ar    1  ZINC000655982608   -0.1400
     27 C27         4.0222   -0.3393   45.7352 C.ar    1  ZINC000655982608   -0.0800
     28 C28         3.8258    0.3851   44.5729 C.ar    1  ZINC000655982608   -0.1400
     29 C29         2.7778    1.2830   44.4895 C.ar    1  ZINC000655982608   -0.0900
     30 C30         1.9284    1.4617   45.5617 C.ar    1  ZINC000655982608   -0.1400
     31 C31         2.1213    0.7382   46.7371 C.ar    1  ZINC000655982608    0.1000
     32 H32        -1.4876    0.0106   46.3404 H       1  ZINC000655982608    0.0700
     33 H33         0.1825    0.0062   45.7250 H       1  ZINC000655982608    0.0700
     34 H34        -0.3045   -1.1524   46.9853 H       1  ZINC000655982608    0.0700
     35 H35        -1.0494   -0.4988   49.0126 H       1  ZINC000655982608    0.1200
     36 H36        -0.1877    0.8234   49.8358 H       1  ZINC000655982608    0.1100
     37 H37        -6.7293    0.9110   49.9632 H       1  ZINC000655982608    0.1200
     38 H38        -5.2283    0.3770   50.7830 H       1  ZINC000655982608    0.1200
     39 H39        -8.4583    2.8206   53.5035 H       1  ZINC000655982608    0.1200
     40 H40        -9.0744    3.8510   55.6519 H       1  ZINC000655982608    0.1300
     41 H41        -7.3377    4.8399   57.0879 H       1  ZINC000655982608    0.1200
     42 H42        -4.9807    4.8016   56.3807 H       1  ZINC000655982608    0.1300
     43 H43        -4.3533    3.7667   54.2376 H       1  ZINC000655982608    0.1500
     44 H44        -3.9950    2.9291   51.9658 H       1  ZINC000655982608    0.0900
     45 H45        -5.0997    4.2586   51.5053 H       1  ZINC000655982608    0.1000
     46 H46         1.7366   -0.2739   49.7626 H       1  ZINC000655982608    0.1000
     47 H47         1.0221   -1.2626   48.4460 H       1  ZINC000655982608    0.0700
     48 H48         3.9036   -0.3774   48.8287 H       1  ZINC000655982608    0.0900
     49 H49         3.2727   -1.8913   48.1008 H       1  ZINC000655982608    0.0800
     50 H50         4.8404   -1.0410   45.8017 H       1  ZINC000655982608    0.1200
     51 H51         4.4903    0.2495   43.7323 H       1  ZINC000655982608    0.1200
     52 H52         2.6238    1.8470   43.5815 H       1  ZINC000655982608    0.1300
     53 H53         1.1118    2.1650   45.4904 H       1  ZINC000655982608    0.1200
@<TRIPOS>BOND
     1     1     2    1
     2     1    32    1
     3     1    33    1
     4     1    34    1
     5     2     3    1
     6     2     4    1
     7     2    23    1
     8     4     5    1
     9     4    35    1
    10     4    36    1
    11     5    22    1
    12     5     6    2
    13     6     7    1
    14     7     8    1
    15     7    21    2
    16     8     9    1
    17     8    20    1
    18     8    10    1
    19    10    11    1
    20    10    37    1
    21    10    38    1
    22    11    12    2
    23    11    13   am
    24    13    14    1
    25    13    20    1
    26    14    19   ar
    27    14    15   ar
    28    15    16   ar
    29    15    39    1
    30    16    17   ar
    31    16    40    1
    32    17    18   ar
    33    17    41    1
    34    18    19   ar
    35    18    42    1
    36    19    43    1
    37    20    44    1
    38    20    45    1
    39    21    22    1
    40    23    31    1
    41    23    24    1
    42    24    25    1
    43    24    46    1
    44    24    47    1
    45    25    26    1
    46    25    48    1
    47    25    49    1
    48    26    31   ar
    49    26    27   ar
    50    27    28   ar
    51    27    50    1
    52    28    29   ar
    53    28    51    1
    54    29    30   ar
    55    29    52    1
    56    30    31   ar
    57    30    53    1
@<TRIPOS>SUBSTRUCTURE
     1 ZINC000655982608        1 TEMP              0 ****  ****    0 ROOT


##########                                Name:    ZINC000011620562
##########                DOCK_Rotatable_Bonds:                   9
##########                         Heavy_Atoms:                  29
##########                    Molecular_Weight:             417.448
##########                DOCK_Rotatable_Bonds:                   9
##########                       Formal_Charge:           0.0299999
##########                     HBond_Acceptors:                  12
##########                        HBond_Donors:                   1
##########                         Heavy_Atoms:                  29
##########                          Grid_Score:          -32.878002
##########                     Grid_vdw_energy:          -31.398985
##########                      Grid_es_energy:           -1.479016
##########           Internal_energy_repulsive:            6.672698

@<TRIPOS>MOLECULE
ZINC000011620562
 48 50 1 0 0
SMALL
USER_CHARGES


@<TRIPOS>ATOM
      1 C1         -7.5622    2.0813   57.6611 C.3     1  ZINC000011620562    0.0400
      2 O2         -7.4257    0.9054   58.5018 O.3     1  ZINC000011620562   -0.3500
      3 C3         -8.2931    0.7791   59.5185 C.2     1  ZINC000011620562    0.4600
      4 O4         -9.1234    1.6347   59.7140 O.2     1  ZINC000011620562   -0.5000
      5 C5         -8.2312   -0.4300   60.4159 C.3     1  ZINC000011620562    0.1300
      6 N6         -9.5831   -0.7780   60.8602 N.am    1  ZINC000011620562   -0.7200
      7 C7        -10.3394   -1.6166   60.1243 C.2     1  ZINC000011620562    0.5400
      8 O8         -9.9002   -2.0841   59.0951 O.2     1  ZINC000011620562   -0.5200
      9 C9        -11.7307   -1.9731   60.5804 C.3     1  ZINC000011620562   -0.1600
     10 S10       -12.9364   -0.9613   59.6869 S.3     1  ZINC000011620562    0.1400
     11 C11       -13.7786   -2.2168   58.7818 C.2     1  ZINC000011620562    0.2100
     12 N12       -14.3706   -3.2794   59.2840 N.2     1  ZINC000011620562   -0.3400
     13 N13       -14.8885   -3.9899   58.3480 N.2     1  ZINC000011620562   -0.0300
     14 N14       -14.6714   -3.4466   57.1995 N.2     1  ZINC000011620562   -0.0800
     15 N15       -13.9440   -2.2673   57.4375 N.pl3   1  ZINC000011620562   -0.2600
     16 C16       -13.4806   -1.3411   56.4834 C.2     1  ZINC000011620562   -0.1300
     17 C17       -14.1554   -0.2595   56.0320 C.2     1  ZINC000011620562    0.2500
     18 C18       -15.5358    0.1625   56.4646 C.3     1  ZINC000011620562   -0.1100
     19 N19       -13.3704    0.3866   55.1154 N.pl3   1  ZINC000011620562   -0.3700
     20 C20       -13.7279    1.6066   54.3872 C.3     1  ZINC000011620562    0.0900
     21 N21       -12.1664   -0.3191   54.9938 N.am    1  ZINC000011620562   -0.3600
     22 C22       -11.0962    0.0151   54.1579 C.ar    1  ZINC000011620562    0.1400
     23 C23       -10.2554    1.0692   54.4914 C.ar    1  ZINC000011620562   -0.1300
     24 C24        -9.1991    1.3962   53.6640 C.ar    1  ZINC000011620562   -0.1000
     25 C25        -8.9782    0.6756   52.5046 C.ar    1  ZINC000011620562   -0.1100
     26 C26        -9.8137   -0.3741   52.1694 C.ar    1  ZINC000011620562   -0.1000
     27 C27       -10.8683   -0.7100   52.9954 C.ar    1  ZINC000011620562   -0.1000
     28 C28       -12.2211   -1.3750   55.8307 C.2     1  ZINC000011620562    0.5500
     29 O29       -11.3503   -2.2107   55.9918 O.2     1  ZINC000011620562   -0.5000
     30 H30        -7.4355    2.9782   58.2675 H       1  ZINC000011620562    0.0700
     31 H31        -6.8019    2.0601   56.8804 H       1  ZINC000011620562    0.1100
     32 H32        -8.5519    2.0885   57.2044 H       1  ZINC000011620562    0.0700
     33 H33        -7.8021   -1.2683   59.8671 H       1  ZINC000011620562    0.1200
     34 H34        -7.6097   -0.2073   61.2833 H       1  ZINC000011620562    0.1200
     35 H35        -9.9339   -0.4051   61.6840 H       1  ZINC000011620562    0.4200
     36 H36       -11.9203   -3.0274   60.3784 H       1  ZINC000011620562    0.1400
     37 H37       -11.8213   -1.7862   61.6505 H       1  ZINC000011620562    0.1400
     38 H38       -15.9161   -0.5420   57.2043 H       1  ZINC000011620562    0.1000
     39 H39       -15.4905    1.1597   56.9021 H       1  ZINC000011620562    0.1000
     40 H40       -16.1995    0.1749   55.6000 H       1  ZINC000011620562    0.1000
     41 H41       -14.7388    1.9094   54.6599 H       1  ZINC000011620562    0.1100
     42 H42       -13.0283    2.4017   54.6450 H       1  ZINC000011620562    0.0900
     43 H43       -13.6825    1.4161   53.3149 H       1  ZINC000011620562    0.0900
     44 H44       -10.4277    1.6326   55.3966 H       1  ZINC000011620562    0.1300
     45 H45        -8.5452    2.2160   53.9225 H       1  ZINC000011620562    0.1300
     46 H46        -8.1514    0.9335   51.8593 H       1  ZINC000011620562    0.1300
     47 H47        -9.6388   -0.9344   51.2629 H       1  ZINC000011620562    0.1400
     48 H48       -11.5203   -1.5301   52.7333 H       1  ZINC000011620562    0.1400
@<TRIPOS>BOND
     1     1     2    1
     2     1    30    1
     3     1    31    1
     4     1    32    1
     5     2     3    1
     6     3     4    2
     7     3     5    1
     8     5     6    1
     9     5    33    1
    10     5    34    1
    11     6     7   am
    12     6    35    1
    13     7     8    2
    14     7     9    1
    15     9    10    1
    16     9    36    1
    17     9    37    1
    18    10    11    1
    19    11    15    1
    20    11    12    2
    21    12    13    1
    22    13    14    2
    23    14    15    1
    24    15    16    1
    25    16    28    1
    26    16    17    2
    27    17    18    1
    28    17    19    1
    29    18    38    1
    30    18    39    1
    31    18    40    1
    32    19    20    1
    33    19    21    1
    34    20    41    1
    35    20    42    1
    36    20    43    1
    37    21    22    1
    38    21    28   am
    39    22    27   ar
    40    22    23   ar
    41    23    24   ar
    42    23    44    1
    43    24    25   ar
    44    24    45    1
    45    25    26   ar
    46    25    46    1
    47    26    27   ar
    48    26    47    1
    49    27    48    1
    50    28    29    2
@<TRIPOS>SUBSTRUCTURE
     1 ZINC000011620562        1 TEMP              0 ****  ****    0 ROOT


##########                                Name:    ZINC000744839011
##########                DOCK_Rotatable_Bonds:                  10
##########                         Heavy_Atoms:                  24
##########                    Molecular_Weight:              378.83
##########                DOCK_Rotatable_Bonds:                  10
##########                       Formal_Charge:           0.0300002
##########                     HBond_Acceptors:                   9
##########                        HBond_Donors:                   0
##########                         Heavy_Atoms:                  24
##########                          Grid_Score:          -32.824150
##########                     Grid_vdw_energy:          -31.738241
##########                      Grid_es_energy:           -1.085911
##########           Internal_energy_repulsive:            8.869577

@<TRIPOS>MOLECULE
ZINC000744839011
 43 43 1 0 0
SMALL
USER_CHARGES


@<TRIPOS>ATOM
      1 C1        -12.9901   -0.7655   54.6405 C.3     1  ZINC000744839011    0.0400
      2 O2        -11.6114   -0.4265   54.3360 O.3     1  ZINC000744839011   -0.3600
      3 C3        -11.3796    0.8036   53.8373 C.2     1  ZINC000744839011    0.5100
      4 O4        -12.2426    1.6568   53.8994 O.2     1  ZINC000744839011   -0.5000
      5 C5        -10.0788    1.1144   53.2162 C.ar    1  ZINC000744839011   -0.1600
      6 C6         -9.6369    2.4381   53.1404 C.ar    1  ZINC000744839011   -0.0100
      7 C7         -8.4213    2.7246   52.5600 C.ar    1  ZINC000744839011   -0.2100
      8 C8         -7.6337    1.6998   52.0498 C.ar    1  ZINC000744839011    0.1800
      9 O9         -6.4364    1.9866   51.4786 O.3     1  ZINC000744839011   -0.2900
     10 C10        -6.4552    2.4286   50.1198 C.3     1  ZINC000744839011    0.0500
     11 C11        -5.0403    2.8247   49.6929 C.3     1  ZINC000744839011    0.0600
     12 O12        -4.1944    1.6448   49.6668 O.3     1  ZINC000744839011   -0.3400
     13 C13        -2.9113    1.8225   49.3151 C.2     1  ZINC000744839011    0.5000
     14 O14        -2.4555    2.9387   49.2363 O.2     1  ZINC000744839011   -0.4900
     15 C15        -2.0392    0.6298   49.0184 C.3     1  ZINC000744839011   -0.6400
     16 S16        -0.2985    1.1401   49.0123 S.o2    1  ZINC000744839011    2.4400
     17 O17        -0.0446    1.8692   47.8193 O.2     1  ZINC000744839011   -0.9100
     18 O18         0.0032    1.7355   50.2668 O.2     1  ZINC000744839011   -0.9100
     19 C19         0.5593   -0.4549   48.9084 C.3     1  ZINC000744839011   -0.5700
     20 C20        -0.0313   -1.2778   47.7616 C.3     1  ZINC000744839011   -0.1500
     21 C21         2.0487   -0.2172   48.6513 C.3     1  ZINC000744839011   -0.1500
     22 C22        -8.0690    0.3804   52.1234 C.ar    1  ZINC000744839011   -0.0800
     23 Cl23       -7.0803   -0.8957   51.4847 Cl      1  ZINC000744839011   -0.0400
     24 C24        -9.2815    0.0850   52.7067 C.ar    1  ZINC000744839011   -0.0100
     25 H25       -13.3796   -0.0699   55.3839 H       1  ZINC000744839011    0.0700
     26 H26       -13.5894   -0.6999   53.7323 H       1  ZINC000744839011    0.0700
     27 H27       -13.0362   -1.7810   55.0337 H       1  ZINC000744839011    0.1100
     28 H28       -10.2483    3.2357   53.5362 H       1  ZINC000744839011    0.1500
     29 H29        -8.0797    3.7475   52.5009 H       1  ZINC000744839011    0.1500
     30 H30        -6.8154    1.6227   49.4805 H       1  ZINC000744839011    0.0900
     31 H31        -7.1171    3.2896   50.0269 H       1  ZINC000744839011    0.1000
     32 H32        -5.0723    3.2708   48.6989 H       1  ZINC000744839011    0.1100
     33 H33        -4.6353    3.5465   50.4022 H       1  ZINC000744839011    0.0900
     34 H34        -2.1920   -0.1314   49.7835 H       1  ZINC000744839011    0.1700
     35 H35        -2.3016    0.2216   48.0424 H       1  ZINC000744839011    0.1700
     36 H36         0.4343   -0.9964   49.8461 H       1  ZINC000744839011    0.1400
     37 H37         0.4841   -2.2362   47.6992 H       1  ZINC000744839011    0.0900
     38 H38        -1.0924   -1.4471   47.9449 H       1  ZINC000744839011    0.0700
     39 H39         0.0937   -0.7363   46.8239 H       1  ZINC000744839011    0.0800
     40 H40         2.4694    0.3690   49.4682 H       1  ZINC000744839011    0.0800
     41 H41         2.5641   -1.1756   48.5888 H       1  ZINC000744839011    0.0900
     42 H42         2.1736    0.3242   47.7136 H       1  ZINC000744839011    0.0800
     43 H43        -9.6191   -0.9392   52.7635 H       1  ZINC000744839011    0.1600
@<TRIPOS>BOND
     1     1     2    1
     2     1    25    1
     3     1    26    1
     4     1    27    1
     5     2     3    1
     6     3     4    2
     7     3     5    1
     8     5    24   ar
     9     5     6   ar
    10     6     7   ar
    11     6    28    1
    12     7     8   ar
    13     7    29    1
    14     8     9    1
    15     8    22   ar
    16     9    10    1
    17    10    11    1
    18    10    30    1
    19    10    31    1
    20    11    12    1
    21    11    32    1
    22    11    33    1
    23    12    13    1
    24    13    14    2
    25    13    15    1
    26    15    16    1
    27    15    34    1
    28    15    35    1
    29    16    17    2
    30    16    18    2
    31    16    19    1
    32    19    20    1
    33    19    21    1
    34    19    36    1
    35    20    37    1
    36    20    38    1
    37    20    39    1
    38    21    40    1
    39    21    41    1
    40    21    42    1
    41    22    23    1
    42    22    24   ar
    43    24    43    1
@<TRIPOS>SUBSTRUCTURE
     1 ZINC000744839011        1 TEMP              0 ****  ****    0 ROOT


##########                                Name:    ZINC000266467123
##########                DOCK_Rotatable_Bonds:                   9
##########                         Heavy_Atoms:                  25
##########                    Molecular_Weight:             337.421
##########                DOCK_Rotatable_Bonds:                   9
##########                       Formal_Charge:                0.02
##########                     HBond_Acceptors:                   5
##########                        HBond_Donors:                   3
##########                         Heavy_Atoms:                  25
##########                          Grid_Score:          -32.823723
##########                     Grid_vdw_energy:          -30.835032
##########                      Grid_es_energy:           -1.988689
##########           Internal_energy_repulsive:            9.984124

@<TRIPOS>MOLECULE
ZINC000266467123
 48 50 1 0 0
SMALL
USER_CHARGES


@<TRIPOS>ATOM
      1 C1          0.3413   -0.6277   49.2569 C.3     1  <0>        -0.1600
      2 C2         -0.3355    0.7393   49.3756 C.3     1  <0>         0.1500
      3 H3         -0.0661    1.1966   50.3276 H       1  <0>         0.1200
      4 N4         -1.7894    0.5718   49.3085 N.am    1  <0>        -0.7300
      5 C5         -2.6016    1.5991   49.6268 C.2     1  <0>         0.7100
      6 O6         -2.1277    2.6654   49.9683 O.2     1  <0>        -0.5900
      7 N7         -3.9390    1.4445   49.5665 N.am    1  <0>        -0.7100
      8 C8         -4.8219    2.5617   49.9108 C.3     1  <0>         0.1100
      9 H9         -4.8572    3.3740   49.1848 H       1  <0>         0.1400
     10 C10        -4.9508    2.9304   51.3901 C.3     1  <0>        -0.1900
     11 C11        -6.1098    2.2365   50.6700 C.3     1  <0>        -0.1500
     12 H12        -6.9923    2.8349   50.4439 H       1  <0>         0.1200
     13 C13        -6.3773    0.7695   51.0125 C.3     1  <0>        -0.0500
     14 C14        -7.6423    0.6659   51.8251 C.ar    1  <0>        -0.0800
     15 C15        -8.4753   -0.4265   51.6709 C.ar    1  <0>        -0.1100
     16 C16        -9.6356   -0.5214   52.4162 C.ar    1  <0>        -0.1200
     17 C17        -9.9628    0.4756   53.3159 C.ar    1  <0>        -0.1200
     18 C18        -9.1293    1.5676   53.4708 C.ar    1  <0>        -0.1200
     19 C19        -7.9667    1.6605   52.7286 C.ar    1  <0>        -0.1200
     20 C20         0.1208    1.6255   48.2454 C.2     1  <0>         0.5100
     21 O21         0.4528    2.7704   48.4686 O.2     1  <0>        -0.5100
     22 N22         0.1599    1.1457   46.9866 N.am    1  <0>        -0.6700
     23 C23         0.5837    1.9686   45.9371 C.ar    1  <0>         0.1400
     24 C24         1.9066    2.3858   45.8707 C.ar    1  <0>        -0.1400
     25 C25         2.3216    3.1981   44.8335 C.ar    1  <0>        -0.1000
     26 C26         1.4215    3.5961   43.8623 C.ar    1  <0>        -0.1300
     27 C27         0.1034    3.1827   43.9259 C.ar    1  <0>        -0.1000
     28 C28        -0.3165    2.3650   44.9567 C.ar    1  <0>        -0.1200
     29 H29         1.4230   -0.5033   49.3070 H       1  <0>         0.0700
     30 H30         0.0112   -1.2689   50.0744 H       1  <0>         0.0800
     31 H31         0.0718   -1.0852   48.3050 H       1  <0>         0.0700
     32 H32        -2.1675   -0.2786   49.0348 H       1  <0>         0.4100
     33 H33        -4.3171    0.5934   49.2952 H       1  <0>         0.4000
     34 H34        -4.3788    2.3416   52.1072 H       1  <0>         0.1000
     35 H35        -5.0713    3.9851   51.6373 H       1  <0>         0.1000
     36 H36        -6.4886    0.1960   50.0923 H       1  <0>         0.0800
     37 H37        -5.5417    0.3728   51.5890 H       1  <0>         0.0700
     38 H38        -8.2197   -1.2054   50.9679 H       1  <0>         0.1200
     39 H39       -10.2867   -1.3746   52.2951 H       1  <0>         0.1200
     40 H40       -10.8696    0.4018   53.8977 H       1  <0>         0.1200
     41 H41        -9.3850    2.3467   54.1736 H       1  <0>         0.1200
     42 H42        -7.3156    2.5135   52.8496 H       1  <0>         0.1200
     43 H43        -0.1055    0.2300   46.8081 H       1  <0>         0.4100
     44 H44         2.6099    2.0758   46.6293 H       1  <0>         0.1300
     45 H45         3.3503    3.5229   44.7813 H       1  <0>         0.1300
     46 H46         1.7484    4.2315   43.0525 H       1  <0>         0.1200
     47 H47        -0.5974    3.4959   43.1662 H       1  <0>         0.1300
     48 H48        -1.3460    2.0425   45.0059 H       1  <0>         0.1400
@<TRIPOS>BOND
     1     1     2    1
     2     1    29    1
     3     1    30    1
     4     1    31    1
     5     2     3    1
     6     2     4    1
     7     2    20    1
     8     4     5   am
     9     4    32    1
    10     5     6    2
    11     5     7   am
    12     7     8    1
    13     7    33    1
    14     8     9    1
    15     8    11    1
    16     8    10    1
    17    10    11    1
    18    10    34    1
    19    10    35    1
    20    11    12    1
    21    11    13    1
    22    13    14    1
    23    13    36    1
    24    13    37    1
    25    14    19   ar
    26    14    15   ar
    27    15    16   ar
    28    15    38    1
    29    16    17   ar
    30    16    39    1
    31    17    18   ar
    32    17    40    1
    33    18    19   ar
    34    18    41    1
    35    19    42    1
    36    20    21    2
    37    20    22   am
    38    22    23    1
    39    22    43    1
    40    23    28   ar
    41    23    24   ar
    42    24    25   ar
    43    24    44    1
    44    25    26   ar
    45    25    45    1
    46    26    27   ar
    47    26    46    1
    48    27    28   ar
    49    27    47    1
    50    28    48    1
@<TRIPOS>SUBSTRUCTURE
     1 <0>         1 TEMP              0 ****  ****    0 ROOT


##########                                Name:    ZINC000600609084
##########                DOCK_Rotatable_Bonds:                   8
##########                         Heavy_Atoms:                  30
##########                    Molecular_Weight:             422.548
##########                DOCK_Rotatable_Bonds:                   8
##########                       Formal_Charge:           0.0100005
##########                     HBond_Acceptors:                   6
##########                        HBond_Donors:                   2
##########                         Heavy_Atoms:                  30
##########                          Grid_Score:          -32.794449
##########                     Grid_vdw_energy:          -32.126892
##########                      Grid_es_energy:           -0.667557
##########           Internal_energy_repulsive:           19.114193

@<TRIPOS>MOLECULE
ZINC000600609084
 56 59 1 0 0
SMALL
USER_CHARGES


@<TRIPOS>ATOM
      1 O1        -10.8833   -2.3753   60.1581 O.2     1  ZINC000600609084   -0.5300
      2 C2        -11.4179   -1.4485   60.7292 C.2     1  ZINC000600609084    0.5200
      3 C3        -12.8666   -1.5469   61.1325 C.3     1  ZINC000600609084   -0.1500
      4 C4        -13.7453   -1.5557   59.8800 C.3     1  ZINC000600609084    0.1300
      5 N5        -13.9926   -2.9391   59.4667 N.am    1  ZINC000600609084   -1.1200
      6 S6        -14.6949   -3.2522   57.9999 S.o2    1  ZINC000600609084    2.7000
      7 O7        -14.6590   -4.6626   57.8307 O.2     1  ZINC000600609084   -0.9600
      8 O8        -15.8968   -2.4950   57.9608 O.2     1  ZINC000600609084   -0.9500
      9 C9        -13.6401   -2.5754   56.7615 C.ar    1  ZINC000600609084   -0.6700
     10 C10       -12.2886   -2.9141   56.7510 C.ar    1  ZINC000600609084   -0.0400
     11 C11       -11.4466   -2.4089   55.8083 C.ar    1  ZINC000600609084   -0.1200
     12 C12       -11.9445   -1.5325   54.8295 C.ar    1  ZINC000600609084   -0.0100
     13 C13       -11.1063   -0.9912   53.8397 C.ar    1  ZINC000600609084   -0.1200
     14 C14       -11.6240   -0.1457   52.9075 C.ar    1  ZINC000600609084   -0.0900
     15 C15       -12.9759    0.1933   52.9179 C.ar    1  ZINC000600609084   -0.1200
     16 C16       -13.8176   -0.3114   53.8608 C.ar    1  ZINC000600609084   -0.0900
     17 C17       -13.3195   -1.1878   54.8401 C.ar    1  ZINC000600609084   -0.0800
     18 C18       -14.1588   -1.7337   55.8257 C.ar    1  ZINC000600609084    0.0200
     19 N19       -10.7149   -0.3330   61.0083 N.am    1  ZINC000600609084   -0.7200
     20 C20        -9.3066   -0.2376   60.6163 C.3     1  ZINC000600609084    0.1400
     21 H21        -8.8257   -1.2109   60.7125 H       1  ZINC000600609084    0.1000
     22 C22        -9.1961    0.2639   59.1657 C.3     1  ZINC000600609084   -0.1300
     23 C23        -8.4081    1.5891   59.2164 C.3     1  ZINC000600609084   -0.1300
     24 C24        -8.6226    2.1036   60.6614 C.3     1  ZINC000600609084   -0.1200
     25 C25        -8.5816    0.7996   61.4986 C.3     1  ZINC000600609084   -0.0700
     26 H26        -7.5509    0.4942   61.6787 H       1  ZINC000600609084    0.0900
     27 C27        -9.3104    0.9879   62.8042 C.ar    1  ZINC000600609084   -0.0600
     28 C28       -10.4951    1.6995   62.8381 C.ar    1  ZINC000600609084   -0.1100
     29 C29       -11.1635    1.8722   64.0356 C.ar    1  ZINC000600609084   -0.1200
     30 C30       -10.6475    1.3330   65.1993 C.ar    1  ZINC000600609084   -0.1200
     31 C31        -9.4633    0.6207   65.1651 C.ar    1  ZINC000600609084   -0.1200
     32 C32        -8.7971    0.4443   63.9669 C.ar    1  ZINC000600609084   -0.1100
     33 H33       -13.0257   -2.4672   61.6944 H       1  ZINC000600609084    0.1000
     34 H34       -13.1294   -0.6913   61.7546 H       1  ZINC000600609084    0.1000
     35 H35       -14.6945   -1.0665   60.0986 H       1  ZINC000600609084    0.0900
     36 H36       -13.2380   -1.0216   59.0765 H       1  ZINC000600609084    0.0800
     37 H37       -13.7451   -3.6719   60.0521 H       1  ZINC000600609084    0.4200
     38 H38       -11.9032   -3.5873   57.5025 H       1  ZINC000600609084    0.1400
     39 H39       -10.4012   -2.6801   55.8128 H       1  ZINC000600609084    0.1400
     40 H40       -10.0565   -1.2445   53.8194 H       1  ZINC000600609084    0.1300
     41 H41       -10.9775    0.2692   52.1484 H       1  ZINC000600609084    0.1300
     42 H42       -13.3612    0.8668   52.1668 H       1  ZINC000600609084    0.1300
     43 H43       -14.8629   -0.0395   53.8568 H       1  ZINC000600609084    0.1300
     44 H44       -15.2094   -1.4838   55.8433 H       1  ZINC000600609084    0.1500
     45 H45       -11.1415    0.4065   61.4687 H       1  ZINC000600609084    0.4000
     46 H46        -8.6608   -0.4658   58.5582 H       1  ZINC000600609084    0.0800
     47 H47       -10.1903    0.4361   58.7534 H       1  ZINC000600609084    0.0700
     48 H48        -7.3494    1.4109   59.0281 H       1  ZINC000600609084    0.0700
     49 H49        -8.8105    2.3000   58.4946 H       1  ZINC000600609084    0.0700
     50 H50        -7.8172    2.7767   60.9555 H       1  ZINC000600609084    0.0700
     51 H51        -9.5914    2.5939   60.7571 H       1  ZINC000600609084    0.0700
     52 H52       -10.8982    2.1207   61.9291 H       1  ZINC000600609084    0.1200
     53 H53       -12.0886    2.4287   64.0623 H       1  ZINC000600609084    0.1200
     54 H54       -11.1693    1.4687   66.1350 H       1  ZINC000600609084    0.1200
     55 H55        -9.0600    0.1998   66.0743 H       1  ZINC000600609084    0.1200
     56 H56        -7.8718   -0.1122   63.9403 H       1  ZINC000600609084    0.1200
@<TRIPOS>BOND
     1     1     2    2
     2     2     3    1
     3     2    19   am
     4     3     4    1
     5     3    33    1
     6     3    34    1
     7     4     5    1
     8     4    35    1
     9     4    36    1
    10     5     6   am
    11     5    37    1
    12     6     7    2
    13     6     8    2
    14     6     9    1
    15     9    18   ar
    16     9    10   ar
    17    10    11   ar
    18    10    38    1
    19    11    12   ar
    20    11    39    1
    21    12    17   ar
    22    12    13   ar
    23    13    14   ar
    24    13    40    1
    25    14    15   ar
    26    14    41    1
    27    15    16   ar
    28    15    42    1
    29    16    17   ar
    30    16    43    1
    31    17    18   ar
    32    18    44    1
    33    19    20    1
    34    19    45    1
    35    20    21    1
    36    20    25    1
    37    20    22    1
    38    22    23    1
    39    22    46    1
    40    22    47    1
    41    23    24    1
    42    23    48    1
    43    23    49    1
    44    24    25    1
    45    24    50    1
    46    24    51    1
    47    25    26    1
    48    25    27    1
    49    27    32   ar
    50    27    28   ar
    51    28    29   ar
    52    28    52    1
    53    29    30   ar
    54    29    53    1
    55    30    31   ar
    56    30    54    1
    57    31    32   ar
    58    31    55    1
    59    32    56    1
@<TRIPOS>SUBSTRUCTURE
     1 ZINC000600609084        1 TEMP              0 ****  ****    0 ROOT


##########                                Name:    ZINC000550217006
##########                DOCK_Rotatable_Bonds:                   7
##########                         Heavy_Atoms:                  27
##########                    Molecular_Weight:             367.404
##########                DOCK_Rotatable_Bonds:                   7
##########                       Formal_Charge:          0.00999951
##########                     HBond_Acceptors:                   7
##########                        HBond_Donors:                   3
##########                         Heavy_Atoms:                  27
##########                          Grid_Score:          -32.705437
##########                     Grid_vdw_energy:          -32.506470
##########                      Grid_es_energy:           -0.198967
##########           Internal_energy_repulsive:           14.521934

@<TRIPOS>MOLECULE
ZINC000550217006
 48 50 1 0 0
SMALL
USER_CHARGES


@<TRIPOS>ATOM
      1 C1         -8.8334    4.2238   51.4576 C.3     1  ZINC000550217006   -0.1500
      2 C2         -8.3005    4.0599   52.8825 C.3     1  ZINC000550217006    0.0500
      3 O3         -7.5408    2.8529   52.9710 O.3     1  ZINC000550217006   -0.3100
      4 C4         -8.1954    1.6912   52.7087 C.ar    1  ZINC000550217006    0.1400
      5 C5         -9.5198    1.5384   53.0918 C.ar    1  ZINC000550217006   -0.2100
      6 C6        -10.1834    0.3565   52.8236 C.ar    1  ZINC000550217006   -0.0800
      7 C7         -9.5283   -0.6734   52.1745 C.ar    1  ZINC000550217006   -0.1600
      8 C8         -8.2079   -0.5237   51.7919 C.ar    1  ZINC000550217006   -0.0700
      9 C9         -7.5420    0.6581   52.0523 C.ar    1  ZINC000550217006   -0.1200
     10 C10        -6.1032    0.8208   51.6347 C.3     1  ZINC000550217006   -0.0800
     11 C11        -5.9720    2.0417   50.7219 C.3     1  ZINC000550217006    0.1300
     12 N12        -4.7677    1.9088   49.8985 N.am    1  ZINC000550217006   -0.7200
     13 C13        -3.5820    2.3509   50.3624 C.2     1  ZINC000550217006    0.5600
     14 O14        -3.5123    2.8612   51.4631 O.2     1  ZINC000550217006   -0.5300
     15 C15        -2.3644    2.2150   49.5310 C.ar    1  ZINC000550217006   -0.0800
     16 C16        -1.3857    3.2114   49.5546 C.ar    1  ZINC000550217006   -0.1000
     17 C17        -0.2584    3.0820   48.7810 C.ar    1  ZINC000550217006   -0.0500
     18 C18        -0.0745    1.9553   47.9624 C.ar    1  ZINC000550217006   -0.1300
     19 C19        -1.0478    0.9569   47.9386 C.ar    1  ZINC000550217006    0.1800
     20 C20        -2.1899    1.0936   48.7297 C.ar    1  ZINC000550217006   -0.0900
     21 N21        -0.9441   -0.1909   47.1715 N.am    1  ZINC000550217006   -0.6600
     22 C22        -0.4893   -0.2505   45.9236 C.2     1  ZINC000550217006    0.5100
     23 O23        -0.4935   -1.3170   45.3462 O.2     1  ZINC000550217006   -0.5100
     24 C24         0.0298    0.9657   45.2068 C.3     1  ZINC000550217006    0.0900
     25 N25         1.2186    1.4543   45.9054 N.am    1  ZINC000550217006   -0.7100
     26 C26         1.1564    1.8941   47.1611 C.2     1  ZINC000550217006    0.5600
     27 O27         2.1888    2.2710   47.6803 O.2     1  ZINC000550217006   -0.5200
     28 H28        -9.4697    3.3748   51.2078 H       1  ZINC000550217006    0.0700
     29 H29        -9.4128    5.1445   51.3901 H       1  ZINC000550217006    0.0800
     30 H30        -7.9971    4.2689   50.7599 H       1  ZINC000550217006    0.0700
     31 H31        -7.6641    4.9089   53.1323 H       1  ZINC000550217006    0.0600
     32 H32        -9.1368    4.0149   53.5802 H       1  ZINC000550217006    0.0600
     33 H33       -10.0318    2.3424   53.5996 H       1  ZINC000550217006    0.1300
     34 H34       -11.2145    0.2370   53.1217 H       1  ZINC000550217006    0.1300
     35 H35       -10.0486   -1.5966   51.9660 H       1  ZINC000550217006    0.1300
     36 H36        -7.6982   -1.3299   51.2852 H       1  ZINC000550217006    0.1300
     37 H37        -5.4817    0.9600   52.5192 H       1  ZINC000550217006    0.0800
     38 H38        -5.7774   -0.0705   51.0984 H       1  ZINC000550217006    0.0800
     39 H39        -6.8478    2.1086   50.0765 H       1  ZINC000550217006    0.0700
     40 H40        -5.8990    2.9436   51.3296 H       1  ZINC000550217006    0.0700
     41 H41        -4.8235    1.5025   49.0194 H       1  ZINC000550217006    0.4000
     42 H42        -1.5154    4.0822   50.1802 H       1  ZINC000550217006    0.1400
     43 H43         0.4951    3.8554   48.8019 H       1  ZINC000550217006    0.1500
     44 H44        -2.9481    0.3246   48.7125 H       1  ZINC000550217006    0.1500
     45 H45        -1.2275   -1.0238   47.5800 H       1  ZINC000550217006    0.4200
     46 H46         0.2912    0.7017   44.1820 H       1  ZINC000550217006    0.1300
     47 H47        -0.7358    1.7414   45.2022 H       1  ZINC000550217006    0.1000
     48 H48         2.0717    1.4578   45.4439 H       1  ZINC000550217006    0.4200
@<TRIPOS>BOND
     1     1     2    1
     2     1    28    1
     3     1    29    1
     4     1    30    1
     5     2     3    1
     6     2    31    1
     7     2    32    1
     8     3     4    1
     9     4     9   ar
    10     4     5   ar
    11     5     6   ar
    12     5    33    1
    13     6     7   ar
    14     6    34    1
    15     7     8   ar
    16     7    35    1
    17     8     9   ar
    18     8    36    1
    19     9    10    1
    20    10    11    1
    21    10    37    1
    22    10    38    1
    23    11    12    1
    24    11    39    1
    25    11    40    1
    26    12    13   am
    27    12    41    1
    28    13    14    2
    29    13    15    1
    30    15    20   ar
    31    15    16   ar
    32    16    17   ar
    33    16    42    1
    34    17    18   ar
    35    17    43    1
    36    18    26    1
    37    18    19   ar
    38    19    20   ar
    39    19    21    1
    40    20    44    1
    41    21    22   am
    42    21    45    1
    43    22    23    2
    44    22    24    1
    45    24    25    1
    46    24    46    1
    47    24    47    1
    48    25    26   am
    49    25    48    1
    50    26    27    2
@<TRIPOS>SUBSTRUCTURE
     1 ZINC000550217006        1 TEMP              0 ****  ****    0 ROOT


##########                                Name:    ZINC000062882109
##########                DOCK_Rotatable_Bonds:                   8
##########                         Heavy_Atoms:                  31
##########                    Molecular_Weight:             424.497
##########                DOCK_Rotatable_Bonds:                   8
##########                       Formal_Charge:           0.0299993
##########                     HBond_Acceptors:                   7
##########                        HBond_Donors:                   1
##########                         Heavy_Atoms:                  31
##########                          Grid_Score:          -32.688820
##########                     Grid_vdw_energy:          -32.528877
##########                      Grid_es_energy:           -0.159943
##########           Internal_energy_repulsive:          191.783005

@<TRIPOS>MOLECULE
ZINC000062882109
 59 61 1 0 0
SMALL
USER_CHARGES


@<TRIPOS>ATOM
      1 C1        -13.0102    0.7158   53.1891 C.3     1  ZINC000062882109   -0.2000
      2 C2        -11.6317    0.7983   52.5857 C.2     1  ZINC000062882109    0.3900
      3 O3        -11.4495    0.4471   51.4396 O.2     1  ZINC000062882109   -0.4500
      4 C4        -10.5064    1.3051   53.3878 C.ar    1  ZINC000062882109   -0.1300
      5 C5        -10.7130    1.7100   54.7103 C.ar    1  ZINC000062882109   -0.1100
      6 C6         -9.6554    2.1844   55.4580 C.ar    1  ZINC000062882109   -0.0900
      7 C7         -8.3903    2.2613   54.9047 C.ar    1  ZINC000062882109   -0.1800
      8 C8         -8.1744    1.8621   53.5919 C.ar    1  ZINC000062882109    0.1200
      9 O9         -6.9284    1.9406   53.0546 O.3     1  ZINC000062882109   -0.2800
     10 C10        -6.7846    1.5441   51.6893 C.3     1  ZINC000062882109    0.0700
     11 H11        -7.6509    1.8808   51.1199 H       1  ZINC000062882109    0.1000
     12 C12        -6.6828    0.0196   51.6091 C.3     1  ZINC000062882109   -0.1800
     13 C13        -5.5353    2.1618   51.1158 C.2     1  ZINC000062882109    0.5200
     14 O14        -5.4260    2.3071   49.9166 O.2     1  ZINC000062882109   -0.4900
     15 N15        -4.5395    2.5528   51.9355 N.am    1  ZINC000062882109   -0.6600
     16 C16        -3.3781    3.1271   51.4024 C.ar    1  ZINC000062882109    0.1400
     17 C17        -3.0085    4.4144   51.7677 C.ar    1  ZINC000062882109   -0.1000
     18 C18        -1.8647    4.9850   51.2428 C.ar    1  ZINC000062882109   -0.1100
     19 C19        -1.0796    4.2741   50.3476 C.ar    1  ZINC000062882109    0.0800
     20 O20         0.0390    4.8499   49.8314 O.3     1  ZINC000062882109   -0.3100
     21 C21         1.0396    3.9880   49.2840 C.3     1  ZINC000062882109    0.0500
     22 C22         0.3681    3.0004   48.3192 C.3     1  ZINC000062882109    0.0400
     23 N23        -0.6507    2.2574   49.0805 N.am    1  ZINC000062882109   -0.5500
     24 C24        -0.8124    0.9294   48.9172 C.2     1  ZINC000062882109    0.5300
     25 O25        -1.6580    0.3384   49.5550 O.2     1  ZINC000062882109   -0.5100
     26 C26         0.0574    0.1788   47.9419 C.3     1  ZINC000062882109   -0.0800
     27 C27        -0.4326   -1.2663   47.8290 C.3     1  ZINC000062882109   -0.1300
     28 C28        -0.0173    0.8512   46.5697 C.3     1  ZINC000062882109   -0.1600
     29 C29         1.5051    0.1893   48.4369 C.3     1  ZINC000062882109   -0.1500
     30 C30        -1.4480    2.9812   49.9837 C.ar    1  ZINC000062882109    0.1000
     31 C31        -2.5921    2.4073   50.5123 C.ar    1  ZINC000062882109   -0.1400
     32 C32        -9.2255    1.3785   52.8327 C.ar    1  ZINC000062882109   -0.0900
     33 H33       -13.7070    0.3198   52.4504 H       1  ZINC000062882109    0.0900
     34 H34       -12.9880    0.0573   54.0574 H       1  ZINC000062882109    0.1000
     35 H35       -13.3326    1.7108   53.4959 H       1  ZINC000062882109    0.1000
     36 H36       -11.6995    1.6517   55.1456 H       1  ZINC000062882109    0.1400
     37 H37        -9.8158    2.4972   56.4792 H       1  ZINC000062882109    0.1300
     38 H38        -7.5667    2.6336   55.4957 H       1  ZINC000062882109    0.1300
     39 H39        -7.5864   -0.4272   52.0239 H       1  ZINC000062882109    0.0800
     40 H40        -6.5731   -0.2829   50.5676 H       1  ZINC000062882109    0.0800
     41 H41        -5.8166   -0.3173   52.1784 H       1  ZINC000062882109    0.0800
     42 H42        -4.6269    2.4367   52.8946 H       1  ZINC000062882109    0.4100
     43 H43        -3.6171    4.9719   52.4643 H       1  ZINC000062882109    0.1400
     44 H44        -1.5818    5.9869   51.5299 H       1  ZINC000062882109    0.1400
     45 H45         1.7775    4.5815   48.7443 H       1  ZINC000062882109    0.1300
     46 H46         1.5279    3.4381   50.0885 H       1  ZINC000062882109    0.0700
     47 H47        -0.1049    3.5451   47.5021 H       1  ZINC000062882109    0.0900
     48 H48         1.1109    2.3083   47.9222 H       1  ZINC000062882109    0.1300
     49 H49        -1.4639   -1.2737   47.4764 H       1  ZINC000062882109    0.0600
     50 H50         0.1965   -1.8092   47.1236 H       1  ZINC000062882109    0.0700
     51 H51        -0.3793   -1.7454   48.8066 H       1  ZINC000062882109    0.0700
     52 H52         0.3318    1.8806   46.6500 H       1  ZINC000062882109    0.0700
     53 H53         0.6117    0.3083   45.8642 H       1  ZINC000062882109    0.0800
     54 H54        -1.0486    0.8438   46.2170 H       1  ZINC000062882109    0.0600
     55 H55         1.5951   -0.4566   49.3103 H       1  ZINC000062882109    0.0700
     56 H56         2.1618   -0.1746   47.6467 H       1  ZINC000062882109    0.0800
     57 H57         1.7896    1.2064   48.7062 H       1  ZINC000062882109    0.0700
     58 H58        -2.8747    1.4040   50.2294 H       1  ZINC000062882109    0.1800
     59 H59        -9.0585    1.0675   51.8120 H       1  ZINC000062882109    0.1400
@<TRIPOS>BOND
     1     1     2    1
     2     1    33    1
     3     1    34    1
     4     1    35    1
     5     2     3    2
     6     2     4    1
     7     4    32   ar
     8     4     5   ar
     9     5     6   ar
    10     5    36    1
    11     6     7   ar
    12     6    37    1
    13     7     8   ar
    14     7    38    1
    15     8     9    1
    16     8    32   ar
    17     9    10    1
    18    10    11    1
    19    10    12    1
    20    10    13    1
    21    12    39    1
    22    12    40    1
    23    12    41    1
    24    13    14    2
    25    13    15   am
    26    15    16    1
    27    15    42    1
    28    16    31   ar
    29    16    17   ar
    30    17    18   ar
    31    17    43    1
    32    18    19   ar
    33    18    44    1
    34    19    30   ar
    35    19    20    1
    36    20    21    1
    37    21    22    1
    38    21    45    1
    39    21    46    1
    40    22    23    1
    41    22    47    1
    42    22    48    1
    43    23    24   am
    44    23    30    1
    45    24    25    2
    46    24    26    1
    47    26    27    1
    48    26    28    1
    49    26    29    1
    50    27    49    1
    51    27    50    1
    52    27    51    1
    53    28    52    1
    54    28    53    1
    55    28    54    1
    56    29    55    1
    57    29    56    1
    58    29    57    1
    59    30    31   ar
    60    31    58    1
    61    32    59    1
@<TRIPOS>SUBSTRUCTURE
     1 ZINC000062882109        1 TEMP              0 ****  ****    0 ROOT


##########                                Name:    ZINC000546115054
##########                DOCK_Rotatable_Bonds:                  10
##########                         Heavy_Atoms:                  26
##########                    Molecular_Weight:             363.457
##########                DOCK_Rotatable_Bonds:                  10
##########                       Formal_Charge:        -4.39584e-07
##########                     HBond_Acceptors:                   7
##########                        HBond_Donors:                   2
##########                         Heavy_Atoms:                  26
##########                          Grid_Score:          -32.688644
##########                     Grid_vdw_energy:          -31.909815
##########                      Grid_es_energy:           -0.778831
##########           Internal_energy_repulsive:           29.498634

@<TRIPOS>MOLECULE
ZINC000546115054
 55 56 1 0 0
SMALL
USER_CHARGES


@<TRIPOS>ATOM
      1 C1          0.7219    4.7525   47.6893 C.3     1  ZINC000546115054   -0.1500
      2 C2          0.2585    3.9680   46.4601 C.3     1  ZINC000546115054    0.0600
      3 O3         -0.7647    3.0461   46.8413 O.3     1  ZINC000546115054   -0.3700
      4 C4         -0.2833    1.9069   47.5572 C.3     1  ZINC000546115054    0.0500
      5 H5          0.5268    2.2094   48.2208 H       1  ZINC000546115054    0.0700
      6 C6          0.2314    0.8598   46.5660 C.3     1  ZINC000546115054    0.0400
      7 O7          0.6587   -0.3014   47.2809 O.3     1  ZINC000546115054   -0.3700
      8 C8         -0.3768   -0.9377   48.0325 C.3     1  ZINC000546115054    0.0600
      9 C9         -0.9160    0.0371   49.0825 C.3     1  ZINC000546115054   -0.1600
     10 C10        -1.4228    1.3021   48.3829 C.3     1  ZINC000546115054    0.1700
     11 H11        -2.2529    1.0468   47.7242 H       1  ZINC000546115054    0.1000
     12 N12        -1.8731    2.2700   49.3862 N.am    1  ZINC000546115054   -0.7300
     13 C13        -3.1538    2.2588   49.8062 C.2     1  ZINC000546115054    0.7200
     14 O14        -3.9357    1.4464   49.3513 O.2     1  ZINC000546115054   -0.5900
     15 N15        -3.5677    3.1482   50.7304 N.am    1  ZINC000546115054   -0.7200
     16 C16        -4.9602    3.1372   51.1856 C.3     1  ZINC000546115054    0.1600
     17 H17        -5.6132    2.8828   50.3507 H       1  ZINC000546115054    0.1200
     18 C18        -5.1252    2.0988   52.2970 C.3     1  ZINC000546115054   -0.1000
     19 C19        -6.5438    1.5904   52.3029 C.ar    1  ZINC000546115054   -0.0800
     20 C20        -7.5675    2.4030   52.7533 C.ar    1  ZINC000546115054   -0.1100
     21 C21        -8.8686    1.9366   52.7586 C.ar    1  ZINC000546115054   -0.1200
     22 C22        -9.1464    0.6578   52.3134 C.ar    1  ZINC000546115054   -0.1200
     23 C23        -8.1230   -0.1545   51.8622 C.ar    1  ZINC000546115054   -0.1200
     24 C24        -6.8223    0.3133   51.8527 C.ar    1  ZINC000546115054   -0.1100
     25 C25        -5.3270    4.5003   51.7131 C.2     1  ZINC000546115054    0.5000
     26 O26        -4.6787    4.9985   52.6088 O.2     1  ZINC000546115054   -0.5200
     27 N27        -6.3756    5.1658   51.1895 N.am    1  ZINC000546115054   -0.6200
     28 C28        -7.1598    4.5633   50.1087 C.3     1  ZINC000546115054    0.0800
     29 C29        -6.7310    6.4917   51.7011 C.3     1  ZINC000546115054    0.0700
     30 H30         1.5024    5.4556   47.3985 H       1  ZINC000546115054    0.0700
     31 H31        -0.1215    5.2995   48.1104 H       1  ZINC000546115054    0.0600
     32 H32         1.1150    4.0610   48.4346 H       1  ZINC000546115054    0.0600
     33 H33        -0.1347    4.6594   45.7148 H       1  ZINC000546115054    0.0500
     34 H34         1.1020    3.4209   46.0390 H       1  ZINC000546115054    0.0500
     35 H35        -0.5677    0.5885   45.8762 H       1  ZINC000546115054    0.0600
     36 H36         1.0712    1.2713   46.0059 H       1  ZINC000546115054    0.1000
     37 H37        -1.1840   -1.2327   47.3618 H       1  ZINC000546115054    0.0600
     38 H38         0.0246   -1.8212   48.5288 H       1  ZINC000546115054    0.1000
     39 H39        -1.7357   -0.4311   49.6274 H       1  ZINC000546115054    0.0900
     40 H40        -0.1190    0.3010   49.7777 H       1  ZINC000546115054    0.0800
     41 H41        -1.2497    2.9189   49.7482 H       1  ZINC000546115054    0.3900
     42 H42        -2.9436    3.7955   51.0942 H       1  ZINC000546115054    0.4000
     43 H43        -4.4421    1.2676   52.1220 H       1  ZINC000546115054    0.0900
     44 H44        -4.8998    2.5579   53.2595 H       1  ZINC000546115054    0.1100
     45 H45        -7.3504    3.4021   53.1011 H       1  ZINC000546115054    0.1200
     46 H46        -9.6683    2.5712   53.1112 H       1  ZINC000546115054    0.1200
     47 H47       -10.1630    0.2932   52.3183 H       1  ZINC000546115054    0.1200
     48 H48        -8.3400   -1.1538   51.5145 H       1  ZINC000546115054    0.1200
     49 H49        -6.0226   -0.3213   51.5002 H       1  ZINC000546115054    0.1200
     50 H50        -7.9762    3.9795   50.5340 H       1  ZINC000546115054    0.0600
     51 H51        -7.5677    5.3498   49.4737 H       1  ZINC000546115054    0.0700
     52 H52        -6.5189    3.9122   49.5142 H       1  ZINC000546115054    0.0800
     53 H53        -6.1973    7.2549   51.1347 H       1  ZINC000546115054    0.0600
     54 H54        -7.8050    6.6458   51.5960 H       1  ZINC000546115054    0.0800
     55 H55        -6.4554    6.5611   52.7534 H       1  ZINC000546115054    0.0700
@<TRIPOS>BOND
     1     1     2    1
     2     1    30    1
     3     1    31    1
     4     1    32    1
     5     2     3    1
     6     2    33    1
     7     2    34    1
     8     3     4    1
     9     4     5    1
    10     4    10    1
    11     4     6    1
    12     6     7    1
    13     6    35    1
    14     6    36    1
    15     7     8    1
    16     8     9    1
    17     8    37    1
    18     8    38    1
    19     9    10    1
    20     9    39    1
    21     9    40    1
    22    10    11    1
    23    10    12    1
    24    12    13   am
    25    12    41    1
    26    13    14    2
    27    13    15   am
    28    15    16    1
    29    15    42    1
    30    16    17    1
    31    16    18    1
    32    16    25    1
    33    18    19    1
    34    18    43    1
    35    18    44    1
    36    19    24   ar
    37    19    20   ar
    38    20    21   ar
    39    20    45    1
    40    21    22   ar
    41    21    46    1
    42    22    23   ar
    43    22    47    1
    44    23    24   ar
    45    23    48    1
    46    24    49    1
    47    25    26    2
    48    25    27   am
    49    27    28    1
    50    27    29    1
    51    28    50    1
    52    28    51    1
    53    28    52    1
    54    29    53    1
    55    29    54    1
    56    29    55    1
@<TRIPOS>SUBSTRUCTURE
     1 ZINC000546115054        1 TEMP              0 ****  ****    0 ROOT


##########                                Name:    ZINC001060620810
##########                DOCK_Rotatable_Bonds:                   5
##########                         Heavy_Atoms:                  24
##########                    Molecular_Weight:             332.421
##########                DOCK_Rotatable_Bonds:                   5
##########                       Formal_Charge:           0.0299998
##########                     HBond_Acceptors:                   6
##########                        HBond_Donors:                   2
##########                         Heavy_Atoms:                  24
##########                          Grid_Score:          -32.667732
##########                     Grid_vdw_energy:          -31.761417
##########                      Grid_es_energy:           -0.906315
##########           Internal_energy_repulsive:            8.513204

@<TRIPOS>MOLECULE
ZINC001060620810
 49 52 1 0 0
SMALL
USER_CHARGES


@<TRIPOS>ATOM
      1 O1         -1.6006    3.4629   49.7639 O.2     1  ZINC001060620810   -0.5400
      2 C2         -1.9303    2.3947   49.2934 C.2     1  ZINC001060620810    0.5500
      3 N3         -3.1843    1.9359   49.4767 N.am    1  ZINC001060620810   -0.7200
      4 C4         -4.1495    2.7282   50.2427 C.3     1  ZINC001060620810    0.1400
      5 C5         -5.5450    2.5533   49.6404 C.3     1  ZINC001060620810   -0.1300
      6 C6         -6.5532    3.3807   50.4404 C.3     1  ZINC001060620810   -0.1300
      7 C7         -6.5623    2.9063   51.8950 C.3     1  ZINC001060620810    0.1600
      8 N8         -6.9421    1.4924   51.9451 N.pl3   1  ZINC001060620810   -0.6900
      9 C9         -8.2715    1.1374   52.1068 C.ar    1  ZINC001060620810    0.5600
     10 N10        -9.1742    2.0866   52.3030 N.ar    1  ZINC001060620810   -0.5400
     11 C11       -10.4528    1.7833   52.4563 C.ar    1  ZINC001060620810    0.1700
     12 C12       -10.8409    0.4513   52.4201 C.ar    1  ZINC001060620810   -0.0700
     13 F13       -12.1373    0.1052   52.5778 F       1  ZINC001060620810   -0.1300
     14 C14        -9.8677   -0.5171   52.2178 C.ar    1  ZINC001060620810    0.1800
     15 N15        -8.6076   -0.1431   52.0668 N.ar    1  ZINC001060620810   -0.5500
     16 C16        -5.1668    3.0812   52.4973 C.3     1  ZINC001060620810   -0.1200
     17 C17        -4.1587    2.2538   51.6973 C.3     1  ZINC001060620810   -0.1300
     18 C18        -0.9379    1.5805   48.5039 C.3     1  ZINC001060620810   -0.1500
     19 C19        -0.1188    2.3464   47.4732 C.3     1  ZINC001060620810   -0.1500
     20 C20        -1.2336    1.4283   47.0201 C.3     1  ZINC001060620810   -0.1100
     21 H21        -2.1276    1.9196   46.6362 H       1  ZINC001060620810    0.1100
     22 C22        -0.8406    0.1561   46.2757 C.3     1  ZINC001060620810   -0.0900
     23 C23        -0.6109   -0.9905   47.2604 C.3     1  ZINC001060620810   -0.1200
     24 C24         0.3985   -0.5309   48.3186 C.3     1  ZINC001060620810   -0.1200
     25 C25        -0.3028    0.4338   49.2747 C.3     1  ZINC001060620810   -0.0800
     26 H26        -3.4476    1.0811   49.1015 H       1  ZINC001060620810    0.4000
     27 H27        -3.8669    3.7803   50.2054 H       1  ZINC001060620810    0.0900
     28 H28        -5.5386    2.8912   48.6042 H       1  ZINC001060620810    0.0700
     29 H29        -5.8276    1.5012   49.6777 H       1  ZINC001060620810    0.0600
     30 H30        -7.5474    3.2561   50.0113 H       1  ZINC001060620810    0.0700
     31 H31        -6.2706    4.4328   50.4031 H       1  ZINC001060620810    0.0800
     32 H32        -7.2805    3.4959   52.4649 H       1  ZINC001060620810    0.1000
     33 H33        -6.2628    0.8046   51.8650 H       1  ZINC001060620810    0.4100
     34 H34       -11.1846    2.5620   52.6123 H       1  ZINC001060620810    0.1800
     35 H35       -10.1354   -1.5628   52.1845 H       1  ZINC001060620810    0.1800
     36 H36        -5.1733    2.7434   53.5335 H       1  ZINC001060620810    0.0800
     37 H37        -4.8842    4.1333   52.4599 H       1  ZINC001060620810    0.0900
     38 H38        -4.4413    1.2018   51.7345 H       1  ZINC001060620810    0.0700
     39 H39        -3.1645    2.3784   52.1263 H       1  ZINC001060620810    0.0800
     40 H40        -0.2928    3.4189   47.3872 H       1  ZINC001060620810    0.1000
     41 H41         0.9069    2.0201   47.3013 H       1  ZINC001060620810    0.1100
     42 H42         0.0807    0.3508   45.7268 H       1  ZINC001060620810    0.0700
     43 H43        -1.6272   -0.1222   45.5742 H       1  ZINC001060620810    0.0700
     44 H44        -0.2153   -1.8559   46.7288 H       1  ZINC001060620810    0.0700
     45 H45        -1.5526   -1.2530   47.7426 H       1  ZINC001060620810    0.0700
     46 H46         1.2322   -0.0235   47.8330 H       1  ZINC001060620810    0.0700
     47 H47         0.7655   -1.3942   48.8737 H       1  ZINC001060620810    0.0700
     48 H48         0.4255    0.8343   49.9800 H       1  ZINC001060620810    0.0700
     49 H49        -1.0768   -0.1032   49.8231 H       1  ZINC001060620810    0.0700
@<TRIPOS>BOND
     1     1     2    2
     2     2     3   am
     3     2    18    1
     4     3     4    1
     5     3    26    1
     6     4    17    1
     7     4     5    1
     8     4    27    1
     9     5     6    1
    10     5    28    1
    11     5    29    1
    12     6     7    1
    13     6    30    1
    14     6    31    1
    15     7     8    1
    16     7    16    1
    17     7    32    1
    18     8     9    1
    19     8    33    1
    20     9    15   ar
    21     9    10   ar
    22    10    11   ar
    23    11    12   ar
    24    11    34    1
    25    12    13    1
    26    12    14   ar
    27    14    15   ar
    28    14    35    1
    29    16    17    1
    30    16    36    1
    31    16    37    1
    32    17    38    1
    33    17    39    1
    34    18    20    1
    35    18    25    1
    36    18    19    1
    37    19    20    1
    38    19    40    1
    39    19    41    1
    40    20    21    1
    41    20    22    1
    42    22    23    1
    43    22    42    1
    44    22    43    1
    45    23    24    1
    46    23    44    1
    47    23    45    1
    48    24    25    1
    49    24    46    1
    50    24    47    1
    51    25    48    1
    52    25    49    1
@<TRIPOS>SUBSTRUCTURE
     1 ZINC001060620810        1 TEMP              0 ****  ****    0 ROOT


##########                                Name:    ZINC001347442583
##########                DOCK_Rotatable_Bonds:                   9
##########                         Heavy_Atoms:                  27
##########                    Molecular_Weight:             370.492
##########                DOCK_Rotatable_Bonds:                   9
##########                       Formal_Charge:          -0.0400009
##########                     HBond_Acceptors:                   5
##########                        HBond_Donors:                   1
##########                         Heavy_Atoms:                  27
##########                          Grid_Score:          -32.655617
##########                     Grid_vdw_energy:          -32.419968
##########                      Grid_es_energy:           -0.235649
##########           Internal_energy_repulsive:           12.575174

@<TRIPOS>MOLECULE
ZINC001347442583
 57 60 1 0 0
SMALL
USER_CHARGES


@<TRIPOS>ATOM
      1 O1         -0.2640    3.0534   49.8233 O.2     1  ZINC001347442583   -0.5400
      2 C2         -0.9382    2.1051   49.4811 C.2     1  ZINC001347442583    0.5400
      3 C3         -2.4113    2.0747   49.7975 C.3     1  ZINC001347442583   -0.1400
      4 C4         -2.6945    2.9827   50.9959 C.3     1  ZINC001347442583   -0.1000
      5 C5         -4.0622    2.6353   51.5871 C.3     1  ZINC001347442583   -0.1100
      6 C6         -5.1084    2.6092   50.4709 C.3     1  ZINC001347442583   -0.0800
      7 C7         -6.4714    2.3644   51.0656 C.ar    1  ZINC001347442583   -0.0800
      8 C8         -7.2870    3.4330   51.3879 C.ar    1  ZINC001347442583   -0.1200
      9 C9         -8.5371    3.2083   51.9333 C.ar    1  ZINC001347442583   -0.1200
     10 C10        -8.9719    1.9152   52.1561 C.ar    1  ZINC001347442583   -0.1300
     11 C11        -8.1567    0.8466   51.8329 C.ar    1  ZINC001347442583   -0.1200
     12 C12        -6.9082    1.0711   51.2834 C.ar    1  ZINC001347442583   -0.1200
     13 N13        -0.3713    1.0811   48.8130 N.am    1  ZINC001347442583   -0.6300
     14 C14        -0.9647   -0.1907   48.2766 C.3     1  ZINC001347442583    0.1200
     15 H15        -2.0316   -0.3284   48.4521 H       1  ZINC001347442583    0.1200
     16 C16        -0.0327   -1.2545   48.9311 C.3     1  ZINC001347442583   -0.1300
     17 C17         1.3390   -0.5389   48.9984 C.3     1  ZINC001347442583   -0.1300
     18 C18         1.0476    0.8629   48.3697 C.3     1  ZINC001347442583    0.1200
     19 H19         1.7533    1.6514   48.6309 H       1  ZINC001347442583    0.1200
     20 C20         0.8736    0.5945   46.8445 C.3     1  ZINC001347442583    0.1300
     21 H21         1.6721   -0.0484   46.4741 H       1  ZINC001347442583    0.1100
     22 N22         0.8407    1.8552   46.0989 N.am    1  ZINC001347442583   -0.7200
     23 C23         1.9219    2.2531   45.3997 C.2     1  ZINC001347442583    0.5300
     24 O24         2.9217    1.5666   45.3863 O.2     1  ZINC001347442583   -0.5300
     25 C25         1.8885    3.5509   44.6343 C.3     1  ZINC001347442583   -0.1500
     26 H26         2.4723    4.3160   45.1459 H       1  ZINC001347442583    0.1100
     27 C27         2.3961    3.3483   43.1806 C.3     1  ZINC001347442583   -0.1400
     28 C28         1.6331    4.4772   42.4427 C.3     1  ZINC001347442583    0.0500
     29 O29         0.3468    4.5384   43.0790 O.3     1  ZINC001347442583   -0.3800
     30 C30         0.4350    4.0230   44.4163 C.3     1  ZINC001347442583    0.0700
     31 C31        -0.5337   -0.1138   46.7809 C.3     1  ZINC001347442583   -0.1400
     32 H32        -2.9758    2.4264   48.9338 H       1  ZINC001347442583    0.0900
     33 H33        -2.7108    1.0542   50.0362 H       1  ZINC001347442583    0.0900
     34 H34        -1.9237    2.8365   51.7526 H       1  ZINC001347442583    0.0700
     35 H35        -2.6925    4.0234   50.6717 H       1  ZINC001347442583    0.0700
     36 H36        -4.0142    1.6559   52.0631 H       1  ZINC001347442583    0.0600
     37 H37        -4.3394    3.3859   52.3272 H       1  ZINC001347442583    0.0600
     38 H38        -5.1064    3.5658   49.9486 H       1  ZINC001347442583    0.0700
     39 H39        -4.8701    1.8108   49.7681 H       1  ZINC001347442583    0.0700
     40 H40        -6.9473    4.4433   51.2139 H       1  ZINC001347442583    0.1200
     41 H41        -9.1740    4.0432   52.1859 H       1  ZINC001347442583    0.1200
     42 H42        -9.9483    1.7397   52.5829 H       1  ZINC001347442583    0.1200
     43 H43        -8.4962   -0.1637   52.0072 H       1  ZINC001347442583    0.1200
     44 H44        -6.2712    0.2363   51.0309 H       1  ZINC001347442583    0.1200
     45 H45        -0.3829   -1.5083   49.9316 H       1  ZINC001347442583    0.0700
     46 H46         0.0296   -2.1462   48.3073 H       1  ZINC001347442583    0.0800
     47 H47         1.6690   -0.4379   50.0323 H       1  ZINC001347442583    0.0800
     48 H48         2.0814   -1.0757   48.4080 H       1  ZINC001347442583    0.0800
     49 H49         0.0406    2.4035   46.1087 H       1  ZINC001347442583    0.4000
     50 H50         3.4742    3.4961   43.1167 H       1  ZINC001347442583    0.0900
     51 H51         2.1125    2.3677   42.7985 H       1  ZINC001347442583    0.0900
     52 H52         2.1576    5.4259   42.5574 H       1  ZINC001347442583    0.0700
     53 H53         1.5216    4.2309   41.3868 H       1  ZINC001347442583    0.0900
     54 H54        -0.2462    3.1801   44.5333 H       1  ZINC001347442583    0.0700
     55 H55         0.1830    4.8058   45.1317 H       1  ZINC001347442583    0.0800
     56 H56        -0.4384   -1.1218   46.3772 H       1  ZINC001347442583    0.0900
     57 H57        -1.2331    0.4744   46.1869 H       1  ZINC001347442583    0.0800
@<TRIPOS>BOND
     1     1     2    2
     2     2     3    1
     3     2    13   am
     4     3     4    1
     5     3    32    1
     6     3    33    1
     7     4     5    1
     8     4    34    1
     9     4    35    1
    10     5     6    1
    11     5    36    1
    12     5    37    1
    13     6     7    1
    14     6    38    1
    15     6    39    1
    16     7    12   ar
    17     7     8   ar
    18     8     9   ar
    19     8    40    1
    20     9    10   ar
    21     9    41    1
    22    10    11   ar
    23    10    42    1
    24    11    12   ar
    25    11    43    1
    26    12    44    1
    27    13    18    1
    28    13    14    1
    29    14    15    1
    30    14    31    1
    31    14    16    1
    32    16    17    1
    33    16    45    1
    34    16    46    1
    35    17    18    1
    36    17    47    1
    37    17    48    1
    38    18    19    1
    39    18    20    1
    40    20    21    1
    41    20    22    1
    42    20    31    1
    43    22    23   am
    44    22    49    1
    45    23    24    2
    46    23    25    1
    47    25    26    1
    48    25    30    1
    49    25    27    1
    50    27    28    1
    51    27    50    1
    52    27    51    1
    53    28    29    1
    54    28    52    1
    55    28    53    1
    56    29    30    1
    57    30    54    1
    58    30    55    1
    59    31    56    1
    60    31    57    1
@<TRIPOS>SUBSTRUCTURE
     1 ZINC001347442583        1 TEMP              0 ****  ****    0 ROOT


##########                                Name:    ZINC000826435081
##########                DOCK_Rotatable_Bonds:                   7
##########                         Heavy_Atoms:                  28
##########                    Molecular_Weight:             388.361
##########                DOCK_Rotatable_Bonds:                   7
##########                       Formal_Charge:           0.0099996
##########                     HBond_Acceptors:                  12
##########                        HBond_Donors:                   3
##########                         Heavy_Atoms:                  28
##########                          Grid_Score:          -32.636299
##########                     Grid_vdw_energy:          -31.877769
##########                      Grid_es_energy:           -0.758529
##########           Internal_energy_repulsive:           11.963140

@<TRIPOS>MOLECULE
ZINC000826435081
 45 48 1 0 0
SMALL
USER_CHARGES


@<TRIPOS>ATOM
      1 O1         -4.1512    1.1627   49.9034 O.2     1  ZINC000826435081   -0.5700
      2 C2         -4.2006    1.7680   50.9569 C.2     1  ZINC000826435081    0.7200
      3 N3         -5.2426    1.5840   51.7916 N.am    1  ZINC000826435081   -0.7300
      4 C4         -6.3188    0.6593   51.4271 C.3     1  ZINC000826435081    0.1500
      5 C5         -7.5456    0.9354   52.2986 C.3     1  ZINC000826435081    0.0400
      6 H6         -7.2306    1.1010   53.3290 H       1  ZINC000826435081    0.0800
      7 C7         -8.4954   -0.2644   52.2402 C.3     1  ZINC000826435081    0.0300
      8 O8         -9.6887    0.0459   52.9661 O.3     1  ZINC000826435081   -0.3800
      9 C9        -10.3689    1.2071   52.4802 C.3     1  ZINC000826435081    0.0200
     10 C10        -9.4190    2.4070   52.5387 C.3     1  ZINC000826435081    0.0200
     11 O11        -8.2249    2.0976   51.8138 O.3     1  ZINC000826435081   -0.3700
     12 N12        -3.2105    2.6188   51.2923 N.am    1  ZINC000826435081   -0.6400
     13 C13        -2.1272    2.8101   50.4245 C.2     1  ZINC000826435081    0.3300
     14 N14        -2.1112    2.5351   49.1414 N.2     1  ZINC000826435081   -0.2800
     15 N15        -0.8477    2.8695   48.6376 N.pl3   1  ZINC000826435081   -0.3300
     16 C16        -0.4264    2.7274   47.3107 C.ar    1  ZINC000826435081    0.2200
     17 C17        -0.3464    3.8375   46.4833 C.ar    1  ZINC000826435081   -0.1300
     18 C18         0.0696    3.6968   45.1730 C.ar    1  ZINC000826435081   -0.0500
     19 C19         0.4081    2.4506   44.6775 C.ar    1  ZINC000826435081   -0.1500
     20 C20         0.3334    1.3341   45.4904 C.ar    1  ZINC000826435081    0.1500
     21 F21         0.6653    0.1188   45.0028 F       1  ZINC000826435081   -0.1100
     22 C22        -0.0791    1.4659   46.8157 C.ar    1  ZINC000826435081   -0.0500
     23 C23        -0.1614    0.2723   47.6929 C.2     1  ZINC000826435081    0.2100
     24 N24        -1.2608   -0.3183   48.1182 N.2     1  ZINC000826435081   -0.2800
     25 N25        -0.9123   -1.3164   48.8552 N.pl3   1  ZINC000826435081   -0.2300
     26 N26         0.3724   -1.3771   48.9105 N.2     1  ZINC000826435081   -0.0500
     27 N27         0.8679   -0.4194   48.2029 N.2     1  ZINC000826435081   -0.2300
     28 C28        -0.1036    3.3558   49.6643 C.2     1  ZINC000826435081    0.0700
     29 C29        -0.8727    3.3351   50.7765 C.2     1  ZINC000826435081   -0.2400
     30 H30        -5.2800    2.0638   52.6339 H       1  ZINC000826435081    0.4000
     31 H31        -6.5792    0.8003   50.3780 H       1  ZINC000826435081    0.0800
     32 H32        -5.9852   -0.3665   51.5839 H       1  ZINC000826435081    0.0900
     33 H33        -8.7465   -0.4801   51.2017 H       1  ZINC000826435081    0.0700
     34 H34        -8.0127   -1.1333   52.6873 H       1  ZINC000826435081    0.1100
     35 H35       -10.6829    1.0410   51.4497 H       1  ZINC000826435081    0.0600
     36 H36       -11.2429    1.4039   53.1012 H       1  ZINC000826435081    0.1100
     37 H37        -9.9018    3.2759   52.0915 H       1  ZINC000826435081    0.1100
     38 H38        -9.1680    2.6226   53.5771 H       1  ZINC000826435081    0.0600
     39 H39        -3.2479    3.0986   52.1344 H       1  ZINC000826435081    0.4100
     40 H40        -0.6099    4.8134   46.8635 H       1  ZINC000826435081    0.1500
     41 H41         0.1303    4.5643   44.5325 H       1  ZINC000826435081    0.1500
     42 H42         0.7315    2.3490   43.6521 H       1  ZINC000826435081    0.1500
     43 H43        -1.5223   -1.9262   49.2988 H       1  ZINC000826435081    0.4800
     44 H44         0.9177    3.7017   49.6028 H       1  ZINC000826435081    0.1800
     45 H45        -0.5731    3.6580   51.7625 H       1  ZINC000826435081    0.1800
@<TRIPOS>BOND
     1     1     2    2
     2     2     3   am
     3     2    12   am
     4     3     4    1
     5     3    30    1
     6     4     5    1
     7     4    31    1
     8     4    32    1
     9     5     6    1
    10     5    11    1
    11     5     7    1
    12     7     8    1
    13     7    33    1
    14     7    34    1
    15     8     9    1
    16     9    10    1
    17     9    35    1
    18     9    36    1
    19    10    11    1
    20    10    37    1
    21    10    38    1
    22    12    13    1
    23    12    39    1
    24    13    29    1
    25    13    14    2
    26    14    15    1
    27    15    16    1
    28    15    28    1
    29    16    22   ar
    30    16    17   ar
    31    17    18   ar
    32    17    40    1
    33    18    19   ar
    34    18    41    1
    35    19    20   ar
    36    19    42    1
    37    20    21    1
    38    20    22   ar
    39    22    23    1
    40    23    27    1
    41    23    24    2
    42    24    25    1
    43    25    26    1
    44    25    43    1
    45    26    27    2
    46    28    29    2
    47    28    44    1
    48    29    45    1
@<TRIPOS>SUBSTRUCTURE
     1 ZINC000826435081        1 TEMP              0 ****  ****    0 ROOT


##########                                Name:    ZINC001065334255
##########                DOCK_Rotatable_Bonds:                   7
##########                         Heavy_Atoms:                  23
##########                    Molecular_Weight:             346.448
##########                DOCK_Rotatable_Bonds:                   7
##########                       Formal_Charge:        -5.81145e-07
##########                     HBond_Acceptors:                   8
##########                        HBond_Donors:                   1
##########                         Heavy_Atoms:                  23
##########                          Grid_Score:          -32.610115
##########                     Grid_vdw_energy:          -31.420094
##########                      Grid_es_energy:           -1.190021
##########           Internal_energy_repulsive:           19.046082

@<TRIPOS>MOLECULE
ZINC001065334255
 49 50 1 0 0
SMALL
USER_CHARGES


@<TRIPOS>ATOM
      1 C1         -6.9212    4.2706   53.1250 C.3     1  ZINC001065334255   -0.1500
      2 C2         -7.3940    2.8885   53.5802 C.3     1  ZINC001065334255   -0.0800
      3 C3         -8.4348    3.0457   54.6907 C.3     1  ZINC001065334255   -0.1500
      4 C4         -8.0193    2.1478   52.3964 C.3     1  ZINC001065334255   -0.1400
      5 C5         -6.9292    1.6518   51.4817 C.2     1  ZINC001065334255    0.5100
      6 O6         -6.5227    0.5137   51.5842 O.2     1  ZINC001065334255   -0.5300
      7 N7         -6.4060    2.4729   50.5498 N.am    1  ZINC001065334255   -0.7300
      8 C8         -5.3475    1.9901   49.6594 C.3     1  ZINC001065334255    0.1300
      9 C9         -3.9908    2.1440   50.3498 C.3     1  ZINC001065334255    0.0700
     10 H10        -3.8119    1.2850   50.9966 H       1  ZINC001065334255    0.0700
     11 C11        -2.8845    2.2277   49.2920 C.3     1  ZINC001065334255    0.0800
     12 N12        -1.6207    2.5618   49.9676 N.am    1  ZINC001065334255   -0.6100
     13 C13        -0.5049    1.8378   49.7495 C.2     1  ZINC001065334255    0.5400
     14 O14         0.5274    2.1294   50.3155 O.2     1  ZINC001065334255   -0.5200
     15 C15        -0.5400    0.6662   48.8024 C.3     1  ZINC001065334255   -0.1100
     16 H16        -1.4076    0.0413   49.0141 H       1  ZINC001065334255    0.1200
     17 C17         0.7507   -0.1604   48.9387 C.3     1  ZINC001065334255   -0.1000
     18 C18         0.8439   -1.1319   47.7452 C.3     1  ZINC001065334255   -0.5900
     19 S19        -0.0660   -0.3084   46.3888 S.o2    1  ZINC001065334255    2.3900
     20 O20         0.8511    0.0833   45.3764 O.2     1  ZINC001065334255   -0.9300
     21 O21        -1.2072   -1.0837   46.0485 O.2     1  ZINC001065334255   -0.9300
     22 C22        -0.5930    1.1695   47.3369 C.3     1  ZINC001065334255   -0.5900
     23 C23        -1.6108    3.7100   50.8878 C.3     1  ZINC001065334255    0.0600
     24 C24        -2.7791    3.5541   51.8679 C.3     1  ZINC001065334255    0.0500
     25 O25        -3.9863    3.3402   51.1326 O.3     1  ZINC001065334255   -0.3700
     26 H26        -6.4759    4.7983   53.9684 H       1  ZINC001065334255    0.0600
     27 H27        -6.1797    4.1586   52.3339 H       1  ZINC001065334255    0.0500
     28 H28        -7.7713    4.8395   52.7484 H       1  ZINC001065334255    0.0600
     29 H29        -6.5440    2.3196   53.9569 H       1  ZINC001065334255    0.0800
     30 H30        -9.2848    3.6147   54.3141 H       1  ZINC001065334255    0.0500
     31 H31        -8.7715    2.0611   55.0150 H       1  ZINC001065334255    0.0700
     32 H32        -7.9893    3.5734   55.5340 H       1  ZINC001065334255    0.0500
     33 H33        -8.5993    1.3009   52.7631 H       1  ZINC001065334255    0.0900
     34 H34        -8.6732    2.8258   51.8480 H       1  ZINC001065334255    0.0900
     35 H35        -6.7303    3.3835   50.4686 H       1  ZINC001065334255    0.4000
     36 H36        -5.5196    0.9393   49.4267 H       1  ZINC001065334255    0.0900
     37 H37        -5.3543    2.5722   48.7379 H       1  ZINC001065334255    0.0800
     38 H38        -2.7874    1.2673   48.7855 H       1  ZINC001065334255    0.1100
     39 H39        -3.1288    3.0031   48.5659 H       1  ZINC001065334255    0.0900
     40 H40         1.6139    0.5052   48.9376 H       1  ZINC001065334255    0.1000
     41 H41         0.7273   -0.7256   49.8703 H       1  ZINC001065334255    0.1000
     42 H42         1.8854   -1.2863   47.4633 H       1  ZINC001065334255    0.1500
     43 H43         0.3733   -2.0831   47.9938 H       1  ZINC001065334255    0.1400
     44 H44        -1.6068    1.4630   47.0639 H       1  ZINC001065334255    0.1400
     45 H45         0.1033    1.9944   47.1864 H       1  ZINC001065334255    0.1500
     46 H46        -0.6702    3.7313   51.4382 H       1  ZINC001065334255    0.1000
     47 H47        -1.7268    4.6347   50.3223 H       1  ZINC001065334255    0.0900
     48 H48        -2.5953    2.7007   52.5207 H       1  ZINC001065334255    0.0600
     49 H49        -2.8739    4.4589   52.4682 H       1  ZINC001065334255    0.1100
@<TRIPOS>BOND
     1     1     2    1
     2     1    26    1
     3     1    27    1
     4     1    28    1
     5     2     3    1
     6     2     4    1
     7     2    29    1
     8     3    30    1
     9     3    31    1
    10     3    32    1
    11     4     5    1
    12     4    33    1
    13     4    34    1
    14     5     6    2
    15     5     7   am
    16     7     8    1
    17     7    35    1
    18     8     9    1
    19     8    36    1
    20     8    37    1
    21     9    10    1
    22     9    25    1
    23     9    11    1
    24    11    12    1
    25    11    38    1
    26    11    39    1
    27    12    13   am
    28    12    23    1
    29    13    14    2
    30    13    15    1
    31    15    16    1
    32    15    22    1
    33    15    17    1
    34    17    18    1
    35    17    40    1
    36    17    41    1
    37    18    19    1
    38    18    42    1
    39    18    43    1
    40    19    20    2
    41    19    21    2
    42    19    22    1
    43    22    44    1
    44    22    45    1
    45    23    24    1
    46    23    46    1
    47    23    47    1
    48    24    25    1
    49    24    48    1
    50    24    49    1
@<TRIPOS>SUBSTRUCTURE
     1 ZINC001065334255        1 TEMP              0 ****  ****    0 ROOT


##########                                Name:    ZINC000603906271
##########                DOCK_Rotatable_Bonds:                   8
##########                         Heavy_Atoms:                  29
##########                    Molecular_Weight:             391.473
##########                DOCK_Rotatable_Bonds:                   8
##########                       Formal_Charge:           0.0499998
##########                     HBond_Acceptors:                   7
##########                        HBond_Donors:                   3
##########                         Heavy_Atoms:                  29
##########                          Grid_Score:          -32.590733
##########                     Grid_vdw_energy:          -30.734404
##########                      Grid_es_energy:           -1.856330
##########           Internal_energy_repulsive:           24.333298

@<TRIPOS>MOLECULE
ZINC000603906271
 54 56 1 0 0
SMALL
USER_CHARGES


@<TRIPOS>ATOM
      1 C1         -6.3960    5.0270   56.2592 C.3     1  ZINC000603906271   -0.1600
      2 C2         -6.1299    3.6571   55.6319 C.3     1  ZINC000603906271    0.1300
      3 H3         -5.2751    3.1923   56.1233 H       1  ZINC000603906271    0.1200
      4 N4         -7.3109    2.8062   55.7980 N.am    1  ZINC000603906271   -0.7100
      5 C5         -7.4602    2.0719   56.9183 C.2     1  ZINC000603906271    0.5700
      6 O6         -6.6142    2.1144   57.7901 O.2     1  ZINC000603906271   -0.5300
      7 C7         -8.6528    1.2146   57.0868 C.ar    1  ZINC000603906271   -0.1400
      8 C8         -8.8317    0.4863   58.2639 C.ar    1  ZINC000603906271   -0.0800
      9 C9         -9.9470   -0.3115   58.4150 C.ar    1  ZINC000603906271   -0.1200
     10 C10       -10.8868   -0.3911   57.4026 C.ar    1  ZINC000603906271   -0.0400
     11 C11       -12.1023   -1.2650   57.5744 C.3     1  ZINC000603906271   -0.0400
     12 C12       -12.5035   -1.2963   59.0505 C.3     1  ZINC000603906271   -0.1400
     13 C13       -13.2571   -0.7014   56.7439 C.3     1  ZINC000603906271   -0.1500
     14 C14       -11.7806   -2.6847   57.1032 C.3     1  ZINC000603906271   -0.1400
     15 C15       -10.7156    0.3286   56.2334 C.ar    1  ZINC000603906271   -0.1300
     16 C16        -9.6074    1.1343   56.0718 C.ar    1  ZINC000603906271   -0.0500
     17 C17        -5.8346    3.8257   54.1637 C.2     1  ZINC000603906271    0.5100
     18 O18        -5.3214    4.8486   53.7619 O.2     1  ZINC000603906271   -0.5100
     19 N19        -6.1410    2.8400   53.2972 N.am    1  ZINC000603906271   -0.6700
     20 C20        -5.8668    2.9966   51.9339 C.ar    1  ZINC000603906271    0.1300
     21 C21        -6.7391    3.7176   51.1281 C.ar    1  ZINC000603906271   -0.1200
     22 C22        -6.4716    3.8744   49.7811 C.ar    1  ZINC000603906271   -0.1000
     23 C23        -5.3367    3.3153   49.2290 C.ar    1  ZINC000603906271   -0.0900
     24 C24        -4.4563    2.5899   50.0299 C.ar    1  ZINC000603906271    0.0000
     25 C25        -3.2360    1.9876   49.4377 C.2     1  ZINC000603906271    0.2700
     26 N26        -2.5866    0.9475   49.9128 N.2     1  ZINC000603906271   -0.3000
     27 N27        -1.5025    0.7195   49.0497 N.pl3   1  ZINC000603906271   -0.4800
     28 C28        -1.5733    1.6597   48.0902 C.2     1  ZINC000603906271    0.2700
     29 N29        -2.6166    2.4101   48.3273 N.2     1  ZINC000603906271   -0.5300
     30 C30        -4.7213    2.4370   51.3878 C.ar    1  ZINC000603906271   -0.0800
     31 H31        -7.2506    5.4919   55.7677 H       1  ZINC000603906271    0.0700
     32 H32        -6.6094    4.9051   57.3211 H       1  ZINC000603906271    0.0800
     33 H33        -5.5172    5.6600   56.1355 H       1  ZINC000603906271    0.0700
     34 H34        -7.9853    2.7714   55.1018 H       1  ZINC000603906271    0.4100
     35 H35        -8.0986    0.5469   59.0547 H       1  ZINC000603906271    0.1300
     36 H36       -10.0867   -0.8756   59.3254 H       1  ZINC000603906271    0.1300
     37 H37       -12.7327   -0.2850   59.3863 H       1  ZINC000603906271    0.0600
     38 H38       -13.3828   -1.9284   59.1748 H       1  ZINC000603906271    0.0600
     39 H39       -11.6808   -1.6978   59.6422 H       1  ZINC000603906271    0.0600
     40 H40       -12.9714   -0.6792   55.6923 H       1  ZINC000603906271    0.0600
     41 H41       -14.1364   -1.3336   56.8682 H       1  ZINC000603906271    0.0600
     42 H42       -13.4864    0.3099   57.0796 H       1  ZINC000603906271    0.0600
     43 H43       -10.9579   -3.0861   57.6949 H       1  ZINC000603906271    0.0600
     44 H44       -12.6598   -3.3167   57.2274 H       1  ZINC000603906271    0.0600
     45 H45       -11.4948   -2.6624   56.0516 H       1  ZINC000603906271    0.0600
     46 H46       -11.4530    0.2625   55.4471 H       1  ZINC000603906271    0.1400
     47 H47        -9.4752    1.6959   55.1588 H       1  ZINC000603906271    0.1400
     48 H48        -6.5514    2.0220   53.6186 H       1  ZINC000603906271    0.4200
     49 H49        -7.6287    4.1565   51.5552 H       1  ZINC000603906271    0.1300
     50 H50        -7.1527    4.4358   49.1588 H       1  ZINC000603906271    0.1400
     51 H51        -5.1311    3.4395   48.1760 H       1  ZINC000603906271    0.1400
     52 H52        -0.8339    0.0214   49.1299 H       1  ZINC000603906271    0.4400
     53 H53        -0.8882    1.7722   47.2629 H       1  ZINC000603906271    0.2300
     54 H54        -4.0421    1.8759   52.0124 H       1  ZINC000603906271    0.1500
@<TRIPOS>BOND
     1     1     2    1
     2     1    31    1
     3     1    32    1
     4     1    33    1
     5     2     3    1
     6     2     4    1
     7     2    17    1
     8     4     5   am
     9     4    34    1
    10     5     6    2
    11     5     7    1
    12     7    16   ar
    13     7     8   ar
    14     8     9   ar
    15     8    35    1
    16     9    10   ar
    17     9    36    1
    18    10    11    1
    19    10    15   ar
    20    11    12    1
    21    11    13    1
    22    11    14    1
    23    12    37    1
    24    12    38    1
    25    12    39    1
    26    13    40    1
    27    13    41    1
    28    13    42    1
    29    14    43    1
    30    14    44    1
    31    14    45    1
    32    15    16   ar
    33    15    46    1
    34    16    47    1
    35    17    18    2
    36    17    19   am
    37    19    20    1
    38    19    48    1
    39    20    30   ar
    40    20    21   ar
    41    21    22   ar
    42    21    49    1
    43    22    23   ar
    44    22    50    1
    45    23    24   ar
    46    23    51    1
    47    24    25    1
    48    24    30   ar
    49    25    29    1
    50    25    26    2
    51    26    27    1
    52    27    28    1
    53    27    52    1
    54    28    29    2
    55    28    53    1
    56    30    54    1
@<TRIPOS>SUBSTRUCTURE
     1 ZINC000603906271        1 TEMP              0 ****  ****    0 ROOT


##########                                Name:    ZINC001045438664
##########                DOCK_Rotatable_Bonds:                   6
##########                         Heavy_Atoms:                  26
##########                    Molecular_Weight:             352.439
##########                DOCK_Rotatable_Bonds:                   6
##########                       Formal_Charge:          -0.0099999
##########                     HBond_Acceptors:                   7
##########                        HBond_Donors:                   2
##########                         Heavy_Atoms:                  26
##########                          Grid_Score:          -32.557453
##########                     Grid_vdw_energy:          -32.166794
##########                      Grid_es_energy:           -0.390659
##########           Internal_energy_repulsive:           10.093660

@<TRIPOS>MOLECULE
ZINC001045438664
 50 53 1 0 0
SMALL
USER_CHARGES


@<TRIPOS>ATOM
      1 C1         -5.3268    1.6066   51.6144 C.3     1  ZINC001045438664   -0.1100
      2 C2         -4.0332    2.1296   51.0451 C.ar    1  ZINC001045438664    0.2100
      3 C3         -3.6676    1.8270   49.7485 C.ar    1  ZINC001045438664   -0.3000
      4 C4         -2.4597    2.3348   49.2647 C.ar    1  ZINC001045438664    0.4500
      5 N5         -2.0488    2.0601   47.9705 N.pl3   1  ZINC001045438664   -0.7100
      6 C6         -1.1637    0.9224   47.7089 C.3     1  ZINC001045438664    0.1500
      7 H7         -1.5710    0.3253   46.8929 H       1  ZINC001045438664    0.0900
      8 C8         -1.0564    0.0596   48.9678 C.3     1  ZINC001045438664   -0.1300
      9 C9         -0.1321   -1.1286   48.6946 C.3     1  ZINC001045438664   -0.1200
     10 C10         1.2566   -0.6160   48.3077 C.3     1  ZINC001045438664   -0.1200
     11 C11         1.1493    0.2468   47.0487 C.3     1  ZINC001045438664   -0.1300
     12 C12         0.2250    1.4350   47.3220 C.3     1  ZINC001045438664    0.1400
     13 H13         0.6323    2.0320   48.1379 H       1  ZINC001045438664    0.1000
     14 N14         0.1222    2.2611   46.1165 N.am    1  ZINC001045438664   -0.7200
     15 C15         1.0524    3.2031   45.8638 C.2     1  ZINC001045438664    0.5700
     16 O16         1.9759    3.3681   46.6368 O.2     1  ZINC001045438664   -0.5200
     17 C17         0.9497    4.0355   44.6464 C.ar    1  ZINC001045438664   -0.2500
     18 C18         1.9034    5.0205   44.3657 C.ar    1  ZINC001045438664    0.1900
     19 N19         1.7730    5.7413   43.2658 N.ar    1  ZINC001045438664   -0.5200
     20 C20         0.7640    5.5431   42.4403 C.ar    1  ZINC001045438664    0.3200
     21 N21        -0.1567    4.6266   42.6665 N.ar    1  ZINC001045438664   -0.5200
     22 C22        -0.1009    3.8569   43.7392 C.ar    1  ZINC001045438664    0.2100
     23 N23        -1.7109    3.0865   50.0660 N.ar    1  ZINC001045438664   -0.5800
     24 C24        -2.0991    3.3501   51.2974 C.ar    1  ZINC001045438664    0.4000
     25 C25        -1.2225    4.2066   52.1744 C.3     1  ZINC001045438664   -0.1100
     26 C26         0.2904    4.0008   52.0769 C.3     1  ZINC001045438664   -0.1500
     27 C27        -0.3499    5.2594   51.4880 C.3     1  ZINC001045438664   -0.1500
     28 N28        -3.2352    2.8903   51.7814 N.ar    1  ZINC001045438664   -0.5600
     29 H29        -6.1266    2.3195   51.4137 H       1  ZINC001045438664    0.0800
     30 H30        -5.5678    0.6502   51.1503 H       1  ZINC001045438664    0.0800
     31 H31        -5.2219    1.4719   52.6909 H       1  ZINC001045438664    0.0800
     32 H32        -4.2995    1.2129   49.1241 H       1  ZINC001045438664    0.1400
     33 H33        -2.3470    2.6212   47.2376 H       1  ZINC001045438664    0.4100
     34 H34        -0.6491    0.6566   49.7838 H       1  ZINC001045438664    0.0700
     35 H35        -2.0458   -0.3056   49.2435 H       1  ZINC001045438664    0.0700
     36 H36        -0.0555   -1.7432   49.5915 H       1  ZINC001045438664    0.0700
     37 H37        -0.5393   -1.7256   47.8786 H       1  ZINC001045438664    0.0700
     38 H38         1.6639   -0.0189   49.1236 H       1  ZINC001045438664    0.0700
     39 H39         1.9152   -1.4625   48.1130 H       1  ZINC001045438664    0.0700
     40 H40         2.1387    0.6120   46.7731 H       1  ZINC001045438664    0.0800
     41 H41         0.7420   -0.3502   46.2328 H       1  ZINC001045438664    0.0700
     42 H42        -0.6154    2.1301   45.5003 H       1  ZINC001045438664    0.4000
     43 H43         2.7323    5.1889   45.0371 H       1  ZINC001045438664    0.1700
     44 H44         0.6891    6.1510   41.5507 H       1  ZINC001045438664    0.2100
     45 H45        -0.8587    3.1083   43.9176 H       1  ZINC001045438664    0.1800
     46 H46        -1.6351    4.4547   53.1523 H       1  ZINC001045438664    0.1300
     47 H47         0.8735    4.1135   52.9910 H       1  ZINC001045438664    0.1000
     48 H48         0.6518    3.2461   51.3785 H       1  ZINC001045438664    0.1100
     49 H49        -0.4099    5.3326   50.4021 H       1  ZINC001045438664    0.1000
     50 H50        -0.1882    6.2000   52.0145 H       1  ZINC001045438664    0.1000
@<TRIPOS>BOND
     1     1     2    1
     2     1    29    1
     3     1    30    1
     4     1    31    1
     5     2    28   ar
     6     2     3   ar
     7     3     4   ar
     8     3    32    1
     9     4     5    1
    10     4    23   ar
    11     5     6    1
    12     5    33    1
    13     6     7    1
    14     6    12    1
    15     6     8    1
    16     8     9    1
    17     8    34    1
    18     8    35    1
    19     9    10    1
    20     9    36    1
    21     9    37    1
    22    10    11    1
    23    10    38    1
    24    10    39    1
    25    11    12    1
    26    11    40    1
    27    11    41    1
    28    12    13    1
    29    12    14    1
    30    14    15   am
    31    14    42    1
    32    15    16    2
    33    15    17    1
    34    17    22   ar
    35    17    18   ar
    36    18    19   ar
    37    18    43    1
    38    19    20   ar
    39    20    21   ar
    40    20    44    1
    41    21    22   ar
    42    22    45    1
    43    23    24   ar
    44    24    25    1
    45    24    28   ar
    46    25    27    1
    47    25    26    1
    48    25    46    1
    49    26    27    1
    50    26    47    1
    51    26    48    1
    52    27    49    1
    53    27    50    1
@<TRIPOS>SUBSTRUCTURE
     1 ZINC001045438664        1 TEMP              0 ****  ****    0 ROOT


##########                                Name:    ZINC000654672208
##########                DOCK_Rotatable_Bonds:                   5
##########                         Heavy_Atoms:                  25
##########                    Molecular_Weight:             365.497
##########                DOCK_Rotatable_Bonds:                   5
##########                       Formal_Charge:           0.0100001
##########                     HBond_Acceptors:                   7
##########                        HBond_Donors:                   1
##########                         Heavy_Atoms:                  25
##########                          Grid_Score:          -32.557323
##########                     Grid_vdw_energy:          -31.064812
##########                      Grid_es_energy:           -1.492511
##########           Internal_energy_repulsive:           15.074332

@<TRIPOS>MOLECULE
ZINC000654672208
 52 54 1 0 0
SMALL
USER_CHARGES


@<TRIPOS>ATOM
      1 C1         -8.7472    4.4842   53.7880 C.3     1  ZINC000654672208   -0.1100
      2 C2         -7.7888    3.7271   52.9053 C.ar    1  ZINC000654672208   -0.1300
      3 C3         -7.1647    2.5845   53.3682 C.ar    1  ZINC000654672208    0.1000
      4 N4         -6.3251    1.9164   52.6014 N.ar    1  ZINC000654672208   -0.4700
      5 C5         -6.0482    2.3063   51.3725 C.ar    1  ZINC000654672208    0.1200
      6 C6         -5.0814    1.5067   50.5377 C.3     1  ZINC000654672208   -0.0900
      7 C7         -3.6756    2.0926   50.6839 C.3     1  ZINC000654672208    0.1500
      8 N8         -2.7118    1.2258   50.0014 N.am    1  ZINC000654672208   -0.7500
      9 C9         -2.4538    1.4056   48.6908 C.2     1  ZINC000654672208    0.7100
     10 O10        -3.0210    2.2873   48.0750 O.2     1  ZINC000654672208   -0.5800
     11 N11        -1.5671    0.6082   48.0630 N.am    1  ZINC000654672208   -0.6300
     12 C12        -0.8742   -0.4613   48.7942 C.3     1  ZINC000654672208    0.1300
     13 C13         0.6353   -0.2977   48.5916 C.3     1  ZINC000654672208   -0.1400
     14 C14         0.9443   -0.2589   47.0937 C.3     1  ZINC000654672208   -0.1100
     15 C15         0.2411    0.9460   46.4574 C.3     1  ZINC000654672208   -0.0600
     16 C16         0.5671    0.9849   44.9608 C.3     1  ZINC000654672208   -0.1200
     17 C17         0.5314    2.4590   44.4821 C.3     1  ZINC000654672208   -0.5800
     18 S18         1.3884    3.3048   45.8712 S.o2    1  ZINC000654672208    2.3800
     19 O19         2.7894    3.0913   45.7680 O.2     1  ZINC000654672208   -0.9300
     20 O20         0.8775    4.6229   46.0150 O.2     1  ZINC000654672208   -0.9300
     21 C21         0.6966    2.2255   47.1799 C.3     1  ZINC000654672208   -0.5800
     22 C22        -1.2803    0.7885   46.6338 C.3     1  ZINC000654672208    0.1200
     23 C23        -6.6347    3.4395   50.8412 C.ar    1  ZINC000654672208   -0.1200
     24 C24        -6.3129    3.8777   49.4357 C.3     1  ZINC000654672208   -0.1200
     25 C25        -7.5264    4.1652   51.6159 C.ar    1  ZINC000654672208   -0.0800
     26 H26        -9.7554    4.0942   53.6483 H       1  ZINC000654672208    0.0700
     27 H27        -8.4526    4.3645   54.8307 H       1  ZINC000654672208    0.0700
     28 H28        -8.7267    5.5415   53.5237 H       1  ZINC000654672208    0.0700
     29 H29        -7.3665    2.2347   54.3699 H       1  ZINC000654672208    0.1600
     30 H30        -5.0801    0.4704   50.8758 H       1  ZINC000654672208    0.0900
     31 H31        -5.3848    1.5471   49.4916 H       1  ZINC000654672208    0.0900
     32 H32        -3.6484    3.0873   50.2389 H       1  ZINC000654672208    0.0700
     33 H33        -3.4183    2.1604   51.7410 H       1  ZINC000654672208    0.0700
     34 H34        -2.2594    0.5223   50.4927 H       1  ZINC000654672208    0.3900
     35 H35        -1.1104   -0.3905   49.8559 H       1  ZINC000654672208    0.1000
     36 H36        -1.1915   -1.4311   48.4107 H       1  ZINC000654672208    0.0700
     37 H37         0.9660    0.6317   49.0553 H       1  ZINC000654672208    0.0700
     38 H38         1.1570   -1.1384   49.0489 H       1  ZINC000654672208    0.0800
     39 H39         2.0207   -0.1705   46.9468 H       1  ZINC000654672208    0.0800
     40 H40         0.5880   -1.1764   46.6254 H       1  ZINC000654672208    0.0800
     41 H41         1.5601    0.5685   44.7911 H       1  ZINC000654672208    0.1000
     42 H42        -0.1712    0.4025   44.4096 H       1  ZINC000654672208    0.1000
     43 H43         1.0813    2.5818   43.5490 H       1  ZINC000654672208    0.1400
     44 H44        -0.4943    2.8134   44.3801 H       1  ZINC000654672208    0.1400
     45 H45        -0.1534    2.7111   47.6591 H       1  ZINC000654672208    0.1400
     46 H46         1.4628    1.9894   47.9182 H       1  ZINC000654672208    0.1400
     47 H47        -1.6253   -0.0804   46.0733 H       1  ZINC000654672208    0.0800
     48 H48        -1.7850    1.6840   46.2712 H       1  ZINC000654672208    0.0800
     49 H49        -7.0134    3.4139   48.7412 H       1  ZINC000654672208    0.0800
     50 H50        -6.3959    4.9623   49.3653 H       1  ZINC000654672208    0.0700
     51 H51        -5.2968    3.5739   49.1841 H       1  ZINC000654672208    0.0700
     52 H52        -7.9998    5.0546   51.2271 H       1  ZINC000654672208    0.1300
@<TRIPOS>BOND
     1     1     2    1
     2     1    26    1
     3     1    27    1
     4     1    28    1
     5     2    25   ar
     6     2     3   ar
     7     3     4   ar
     8     3    29    1
     9     4     5   ar
    10     5     6    1
    11     5    23   ar
    12     6     7    1
    13     6    30    1
    14     6    31    1
    15     7     8    1
    16     7    32    1
    17     7    33    1
    18     8     9   am
    19     8    34    1
    20     9    10    2
    21     9    11   am
    22    11    22    1
    23    11    12    1
    24    12    13    1
    25    12    35    1
    26    12    36    1
    27    13    14    1
    28    13    37    1
    29    13    38    1
    30    14    15    1
    31    14    39    1
    32    14    40    1
    33    15    21    1
    34    15    16    1
    35    15    22    1
    36    16    17    1
    37    16    41    1
    38    16    42    1
    39    17    18    1
    40    17    43    1
    41    17    44    1
    42    18    19    2
    43    18    20    2
    44    18    21    1
    45    21    45    1
    46    21    46    1
    47    22    47    1
    48    22    48    1
    49    23    24    1
    50    23    25   ar
    51    24    49    1
    52    24    50    1
    53    24    51    1
    54    25    52    1
@<TRIPOS>SUBSTRUCTURE
     1 ZINC000654672208        1 TEMP              0 ****  ****    0 ROOT


##########                                Name:    ZINC000420486261
##########                DOCK_Rotatable_Bonds:                   7
##########                         Heavy_Atoms:                  26
##########                    Molecular_Weight:             353.378
##########                DOCK_Rotatable_Bonds:                   7
##########                       Formal_Charge:        -2.98023e-08
##########                     HBond_Acceptors:                   7
##########                        HBond_Donors:                   0
##########                         Heavy_Atoms:                  26
##########                          Grid_Score:          -32.519512
##########                     Grid_vdw_energy:          -31.726877
##########                      Grid_es_energy:           -0.792635
##########           Internal_energy_repulsive:            8.163449

@<TRIPOS>MOLECULE
ZINC000420486261
 45 47 1 0 0
SMALL
USER_CHARGES


@<TRIPOS>ATOM
      1 C1         -9.0575   -0.3318   51.9831 C.3     1  ZINC000420486261    0.0400
      2 O2         -8.0712    0.7274   51.8660 O.3     1  ZINC000420486261   -0.3500
      3 C3         -6.7896    0.3527   51.6910 C.2     1  ZINC000420486261    0.5100
      4 O4         -6.5175   -0.8179   51.5176 O.2     1  ZINC000420486261   -0.4900
      5 C5         -5.7123    1.3681   51.7099 C.ar    1  ZINC000420486261   -0.0700
      6 C6         -5.5615    2.2348   52.7974 C.ar    1  ZINC000420486261   -0.0900
      7 C7         -4.5420    3.1707   52.7790 C.ar    1  ZINC000420486261    0.1100
      8 N8         -3.7177    3.2559   51.7574 N.ar    1  ZINC000420486261   -0.4200
      9 C9         -3.8207    2.4560   50.7033 C.ar    1  ZINC000420486261    0.1900
     10 C10        -2.8652    2.5959   49.5817 C.2     1  ZINC000420486261    0.2200
     11 N11        -1.5867    2.9058   49.6733 N.2     1  ZINC000420486261   -0.4300
     12 C12        -1.1258    2.9162   48.4047 C.2     1  ZINC000420486261    0.2200
     13 C13         0.2634    3.2116   47.9770 C.ar    1  ZINC000420486261   -0.0600
     14 C14         0.5577    4.4127   47.3363 C.ar    1  ZINC000420486261   -0.0300
     15 C15         1.8519    4.6829   46.9402 C.ar    1  ZINC000420486261   -0.1600
     16 C16         2.8595    3.7644   47.1772 C.ar    1  ZINC000420486261   -0.0600
     17 C17         2.5787    2.5696   47.8119 C.ar    1  ZINC000420486261   -0.2200
     18 C18         1.2846    2.2877   48.2202 C.ar    1  ZINC000420486261    0.1700
     19 O19         1.0073    1.1139   48.8443 O.3     1  ZINC000420486261   -0.2900
     20 C20         1.5754   -0.0702   48.2811 C.3     1  ZINC000420486261    0.0600
     21 C21         0.4690   -1.0965   48.0290 C.3     1  ZINC000420486261   -0.0900
     22 C22        -0.4831   -1.1245   49.2263 C.3     1  ZINC000420486261   -0.1500
     23 C23        -0.3077   -0.7098   46.7687 C.3     1  ZINC000420486261   -0.1500
     24 N24        -2.1313    2.6172   47.6218 N.2     1  ZINC000420486261   -0.3400
     25 O25        -3.1331    2.4257   48.2780 O.3     1  ZINC000420486261    0.1000
     26 C26        -4.8156    1.4824   50.6443 C.ar    1  ZINC000420486261   -0.0700
     27 H27       -10.0463    0.1060   52.1201 H       1  ZINC000420486261    0.1100
     28 H28        -9.0505   -0.9367   51.0763 H       1  ZINC000420486261    0.0700
     29 H29        -8.8162   -0.9598   52.8407 H       1  ZINC000420486261    0.0700
     30 H30        -6.2327    2.1746   53.6414 H       1  ZINC000420486261    0.1600
     31 H31        -4.4216    3.8420   53.6164 H       1  ZINC000420486261    0.1800
     32 H32        -0.2261    5.1319   47.1494 H       1  ZINC000420486261    0.1400
     33 H33         2.0790    5.6144   46.4431 H       1  ZINC000420486261    0.1300
     34 H34         3.8698    3.9823   46.8641 H       1  ZINC000420486261    0.1300
     35 H35         3.3692    1.8567   47.9941 H       1  ZINC000420486261    0.1400
     36 H36         2.0655    0.1746   47.3389 H       1  ZINC000420486261    0.0600
     37 H37         2.3068   -0.4871   48.9735 H       1  ZINC000420486261    0.0600
     38 H38         0.9125   -2.0830   47.8941 H       1  ZINC000420486261    0.0800
     39 H39        -0.9265   -0.1380   49.3610 H       1  ZINC000420486261    0.0600
     40 H40        -1.2713   -1.8557   49.0467 H       1  ZINC000420486261    0.0700
     41 H41         0.0702   -1.4000   50.1241 H       1  ZINC000420486261    0.0600
     42 H42        -0.7511    0.2767   46.9035 H       1  ZINC000420486261    0.0500
     43 H43         0.3707   -0.6899   45.9157 H       1  ZINC000420486261    0.0600
     44 H44        -1.0959   -1.4410   46.5890 H       1  ZINC000420486261    0.0600
     45 H45        -4.8974    0.8323   49.7858 H       1  ZINC000420486261    0.1600
@<TRIPOS>BOND
     1     1     2    1
     2     1    27    1
     3     1    28    1
     4     1    29    1
     5     2     3    1
     6     3     4    2
     7     3     5    1
     8     5    26   ar
     9     5     6   ar
    10     6     7   ar
    11     6    30    1
    12     7     8   ar
    13     7    31    1
    14     8     9   ar
    15     9    10    1
    16     9    26   ar
    17    10    25    1
    18    10    11    2
    19    11    12    1
    20    12    13    1
    21    12    24    2
    22    13    18   ar
    23    13    14   ar
    24    14    15   ar
    25    14    32    1
    26    15    16   ar
    27    15    33    1
    28    16    17   ar
    29    16    34    1
    30    17    18   ar
    31    17    35    1
    32    18    19    1
    33    19    20    1
    34    20    21    1
    35    20    36    1
    36    20    37    1
    37    21    22    1
    38    21    23    1
    39    21    38    1
    40    22    39    1
    41    22    40    1
    42    22    41    1
    43    23    42    1
    44    23    43    1
    45    23    44    1
    46    24    25    1
    47    26    45    1
@<TRIPOS>SUBSTRUCTURE
     1 ZINC000420486261        1 TEMP              0 ****  ****    0 ROOT


##########                                Name:    ZINC000643274279
##########                DOCK_Rotatable_Bonds:                   6
##########                         Heavy_Atoms:                  29
##########                    Molecular_Weight:             392.454
##########                DOCK_Rotatable_Bonds:                   6
##########                       Formal_Charge:         -0.00999939
##########                     HBond_Acceptors:                   6
##########                        HBond_Donors:                   2
##########                         Heavy_Atoms:                  29
##########                          Grid_Score:          -32.470722
##########                     Grid_vdw_energy:          -31.769253
##########                      Grid_es_energy:           -0.701468
##########           Internal_energy_repulsive:           14.060802

@<TRIPOS>MOLECULE
ZINC000643274279
 53 56 1 0 0
SMALL
USER_CHARGES


@<TRIPOS>ATOM
      1 O1         -4.2836    3.0732   48.7110 O.2     1  ZINC000643274279   -0.4900
      2 C2         -4.5593    2.7794   49.8560 C.2     1  ZINC000643274279    0.5100
      3 N3         -3.6140    2.2622   50.6654 N.am    1  ZINC000643274279   -0.6400
      4 C4         -2.3175    2.0587   50.1847 C.ar    1  ZINC000643274279    0.1300
      5 C5         -1.2522    2.7534   50.7467 C.ar    1  ZINC000643274279   -0.1000
      6 C6          0.0337    2.5672   50.2694 C.ar    1  ZINC000643274279   -0.1000
      7 C7          0.2597    1.6909   49.2310 C.ar    1  ZINC000643274279   -0.0600
      8 C8          1.6576    1.5363   48.6580 C.3     1  ZINC000643274279   -0.0900
      9 C9          2.1809    0.1410   48.9791 C.3     1  ZINC000643274279   -0.1200
     10 C10         1.7679   -0.8670   47.9172 C.3     1  ZINC000643274279   -0.1100
     11 C11         0.3012   -1.2163   47.9351 C.3     1  ZINC000643274279   -0.1600
     12 C12        -0.5298    0.0054   47.5939 C.2     1  ZINC000643274279    0.4100
     13 O13        -0.9587    0.1813   46.4735 O.2     1  ZINC000643274279   -0.4400
     14 C14        -0.7970    0.9703   48.6747 C.ar    1  ZINC000643274279   -0.1300
     15 C15        -2.0955    1.1597   49.1516 C.ar    1  ZINC000643274279   -0.1000
     16 C16        -5.9449    2.9968   50.3697 C.2     1  ZINC000643274279    0.5200
     17 O17        -6.8966    2.8409   49.6329 O.2     1  ZINC000643274279   -0.5000
     18 N18        -6.1382    3.3661   51.6513 N.am    1  ZINC000643274279   -0.5800
     19 C19        -5.0775    3.5897   52.6505 C.3     1  ZINC000643274279    0.0900
     20 C20        -5.7072    4.5515   53.6888 C.3     1  ZINC000643274279   -0.1400
     21 C21        -7.1698    4.0368   53.7433 C.3     1  ZINC000643274279   -0.1200
     22 C22        -7.4416    3.6189   52.2828 C.3     1  ZINC000643274279    0.1800
     23 H23        -7.9638    4.4197   51.7592 H       1  ZINC000643274279    0.0900
     24 C24        -8.2725    2.3620   52.2556 C.ar    1  ZINC000643274279   -0.1000
     25 C25        -9.6495    2.4467   52.1648 C.ar    1  ZINC000643274279   -0.0900
     26 C26       -10.4134    1.2960   52.1396 C.ar    1  ZINC000643274279   -0.1400
     27 C27        -9.7977    0.0545   52.2050 C.ar    1  ZINC000643274279    0.1100
     28 O28       -10.5470   -1.0789   52.1800 O.3     1  ZINC000643274279   -0.5000
     29 C29        -8.4158   -0.0278   52.2956 C.ar    1  ZINC000643274279   -0.1400
     30 C30        -7.6561    1.1257   52.3155 C.ar    1  ZINC000643274279   -0.0900
     31 H31        -3.8334    2.0311   51.5815 H       1  ZINC000643274279    0.4200
     32 H32        -1.4290    3.4421   51.5597 H       1  ZINC000643274279    0.1400
     33 H33         0.8580    3.1083   50.7099 H       1  ZINC000643274279    0.1400
     34 H34         1.6250    1.6729   47.5771 H       1  ZINC000643274279    0.0800
     35 H35         2.3169    2.2831   49.1003 H       1  ZINC000643274279    0.0800
     36 H36         3.2690    0.1730   49.0361 H       1  ZINC000643274279    0.0800
     37 H37         1.7840   -0.1750   49.9439 H       1  ZINC000643274279    0.0700
     38 H38         2.0152   -0.4591   46.9371 H       1  ZINC000643274279    0.0700
     39 H39         2.3438   -1.7809   48.0641 H       1  ZINC000643274279    0.0800
     40 H40         0.1075   -2.0010   47.2038 H       1  ZINC000643274279    0.0900
     41 H41         0.0270   -1.5742   48.9276 H       1  ZINC000643274279    0.0900
     42 H42        -2.9202    0.6141   48.7175 H       1  ZINC000643274279    0.1300
     43 H43        -4.7988    2.6488   53.1249 H       1  ZINC000643274279    0.0800
     44 H44        -4.2079    4.0522   52.1834 H       1  ZINC000643274279    0.1000
     45 H45        -5.2212    4.4511   54.6593 H       1  ZINC000643274279    0.0900
     46 H46        -5.6688    5.5832   53.3392 H       1  ZINC000643274279    0.0800
     47 H47        -7.2531    3.1822   54.4147 H       1  ZINC000643274279    0.0800
     48 H48        -7.8483    4.8343   54.0464 H       1  ZINC000643274279    0.0900
     49 H49       -10.1284    3.4134   52.1139 H       1  ZINC000643274279    0.1200
     50 H50       -11.4891    1.3628   52.0695 H       1  ZINC000643274279    0.1300
     51 H51       -11.4987   -0.9200   52.1167 H       1  ZINC000643274279    0.3900
     52 H52        -7.9342   -0.9932   52.3470 H       1  ZINC000643274279    0.1300
     53 H53        -6.5803    1.0621   52.3857 H       1  ZINC000643274279    0.1300
@<TRIPOS>BOND
     1     1     2    2
     2     2     3   am
     3     2    16    1
     4     3     4    1
     5     3    31    1
     6     4    15   ar
     7     4     5   ar
     8     5     6   ar
     9     5    32    1
    10     6     7   ar
    11     6    33    1
    12     7    14   ar
    13     7     8    1
    14     8     9    1
    15     8    34    1
    16     8    35    1
    17     9    10    1
    18     9    36    1
    19     9    37    1
    20    10    11    1
    21    10    38    1
    22    10    39    1
    23    11    12    1
    24    11    40    1
    25    11    41    1
    26    12    13    2
    27    12    14    1
    28    14    15   ar
    29    15    42    1
    30    16    17    2
    31    16    18   am
    32    18    22    1
    33    18    19    1
    34    19    20    1
    35    19    43    1
    36    19    44    1
    37    20    21    1
    38    20    45    1
    39    20    46    1
    40    21    22    1
    41    21    47    1
    42    21    48    1
    43    22    23    1
    44    22    24    1
    45    24    30   ar
    46    24    25   ar
    47    25    26   ar
    48    25    49    1
    49    26    27   ar
    50    26    50    1
    51    27    28    1
    52    27    29   ar
    53    28    51    1
    54    29    30   ar
    55    29    52    1
    56    30    53    1
@<TRIPOS>SUBSTRUCTURE
     1 ZINC000643274279        1 TEMP              0 ****  ****    0 ROOT


##########                                Name:    ZINC000508571532
##########                DOCK_Rotatable_Bonds:                   9
##########                         Heavy_Atoms:                  30
##########                    Molecular_Weight:             422.407
##########                DOCK_Rotatable_Bonds:                   9
##########                       Formal_Charge:           0.0100001
##########                     HBond_Acceptors:                  10
##########                        HBond_Donors:                   0
##########                         Heavy_Atoms:                  30
##########                          Grid_Score:          -32.458851
##########                     Grid_vdw_energy:          -33.248569
##########                      Grid_es_energy:            0.789719
##########           Internal_energy_repulsive:           21.009218

@<TRIPOS>MOLECULE
ZINC000508571532
 51 53 1 0 0
SMALL
USER_CHARGES


@<TRIPOS>ATOM
      1 C1        -11.3913   -1.1445   52.3224 C.3     1  ZINC000508571532    0.0300
      2 O2        -11.1096    0.2492   52.1812 O.3     1  ZINC000508571532   -0.3200
      3 C3         -9.8016    0.6079   52.0824 C.ar    1  ZINC000508571532    0.0900
      4 C4         -9.4561    1.9465   51.9727 C.ar    1  ZINC000508571532   -0.1700
      5 C5         -8.1274    2.3110   51.8723 C.ar    1  ZINC000508571532   -0.1100
      6 C6         -7.1390    1.3381   51.8818 C.ar    1  ZINC000508571532    0.0900
      7 O7         -5.8311    1.6968   51.7825 O.3     1  ZINC000508571532   -0.3100
      8 C8         -5.5512    3.0871   51.6067 C.3     1  ZINC000508571532    0.1500
      9 C9         -4.0610    3.2920   51.5162 C.2     1  ZINC000508571532    0.1700
     10 N10        -3.2650    3.6155   52.4958 N.2     1  ZINC000508571532   -0.2500
     11 N11        -2.0562    3.7082   52.0690 N.2     1  ZINC000508571532   -0.3000
     12 C12        -2.0157    3.4466   50.7839 C.2     1  ZINC000508571532    0.3500
     13 N13        -0.8884    3.4481   49.9780 N.3     1  ZINC000508571532   -0.4600
     14 C14         0.2164    4.1735   50.6193 C.3     1  ZINC000508571532    0.0300
     15 C15        -0.4874    2.0781   49.6312 C.3     1  ZINC000508571532    0.1100
     16 C16        -0.5949    1.8853   48.1404 C.ar    1  ZINC000508571532   -0.0900
     17 C17        -0.2861    2.9248   47.2850 C.ar    1  ZINC000508571532   -0.0600
     18 C18        -0.3851    2.7487   45.9170 C.ar    1  ZINC000508571532   -0.1300
     19 C19        -0.7926    1.5323   45.4020 C.ar    1  ZINC000508571532   -0.0700
     20 C20        -1.1022    0.4891   46.2534 C.ar    1  ZINC000508571532   -0.1900
     21 C21        -0.9988    0.6616   47.6259 C.ar    1  ZINC000508571532    0.1100
     22 O22        -1.3028   -0.3629   48.4654 O.3     1  ZINC000508571532   -0.3100
     23 C23        -0.2553   -1.2868   48.7673 C.3     1  ZINC000508571532    0.6000
     24 F24        -0.7952   -2.5672   48.9300 F       1  ZINC000508571532   -0.1600
     25 F25         0.6706   -1.3011   47.7186 F       1  ZINC000508571532   -0.1300
     26 F26         0.3843   -0.8969   49.9488 F       1  ZINC000508571532   -0.1600
     27 N27        -3.2925    3.1672   50.3920 N.pl3   1  ZINC000508571532   -0.4500
     28 C28        -3.7473    2.8159   49.0444 C.3     1  ZINC000508571532    0.0800
     29 C29        -7.4844   -0.0005   51.9929 C.ar    1  ZINC000508571532   -0.1700
     30 C30        -8.8128   -0.3647   52.0970 C.ar    1  ZINC000508571532   -0.1100
     31 H31       -12.4690   -1.2924   52.3905 H       1  ZINC000508571532    0.1000
     32 H32       -11.0046   -1.6829   51.4571 H       1  ZINC000508571532    0.0600
     33 H33       -10.9150   -1.5216   53.2276 H       1  ZINC000508571532    0.0600
     34 H34       -10.2258    2.7041   51.9654 H       1  ZINC000508571532    0.1400
     35 H35        -7.8584    3.3534   51.7862 H       1  ZINC000508571532    0.1300
     36 H36        -6.0228    3.4395   50.6894 H       1  ZINC000508571532    0.0800
     37 H37        -5.9441    3.6468   52.4555 H       1  ZINC000508571532    0.1000
     38 H38         0.5612    3.6149   51.4894 H       1  ZINC000508571532    0.0600
     39 H39         1.0371    4.2858   49.9109 H       1  ZINC000508571532    0.0800
     40 H40        -0.1296    5.1582   50.9336 H       1  ZINC000508571532    0.0700
     41 H41         0.5426    1.9103   49.9459 H       1  ZINC000508571532    0.0700
     42 H42        -1.1422    1.3688   50.1374 H       1  ZINC000508571532    0.0900
     43 H43         0.0325    3.8761   47.6849 H       1  ZINC000508571532    0.1400
     44 H44        -0.1438    3.5630   45.2498 H       1  ZINC000508571532    0.1300
     45 H45        -0.8694    1.3973   44.3332 H       1  ZINC000508571532    0.1400
     46 H46        -1.4209   -0.4609   45.8506 H       1  ZINC000508571532    0.1400
     47 H47        -3.7943    1.7312   48.9481 H       1  ZINC000508571532    0.0900
     48 H48        -4.7371    3.2391   48.8731 H       1  ZINC000508571532    0.0900
     49 H49        -3.0489    3.2159   48.3095 H       1  ZINC000508571532    0.1000
     50 H50        -6.7147   -0.7581   52.0005 H       1  ZINC000508571532    0.1400
     51 H51        -9.0818   -1.4070   52.1835 H       1  ZINC000508571532    0.1400
@<TRIPOS>BOND
     1     1     2    1
     2     1    31    1
     3     1    32    1
     4     1    33    1
     5     2     3    1
     6     3    30   ar
     7     3     4   ar
     8     4     5   ar
     9     4    34    1
    10     5     6   ar
    11     5    35    1
    12     6     7    1
    13     6    29   ar
    14     7     8    1
    15     8     9    1
    16     8    36    1
    17     8    37    1
    18     9    27    1
    19     9    10    2
    20    10    11    1
    21    11    12    2
    22    12    13    1
    23    12    27    1
    24    13    14    1
    25    13    15    1
    26    14    38    1
    27    14    39    1
    28    14    40    1
    29    15    16    1
    30    15    41    1
    31    15    42    1
    32    16    21   ar
    33    16    17   ar
    34    17    18   ar
    35    17    43    1
    36    18    19   ar
    37    18    44    1
    38    19    20   ar
    39    19    45    1
    40    20    21   ar
    41    20    46    1
    42    21    22    1
    43    22    23    1
    44    23    24    1
    45    23    25    1
    46    23    26    1
    47    27    28    1
    48    28    47    1
    49    28    48    1
    50    28    49    1
    51    29    30   ar
    52    29    50    1
    53    30    51    1
@<TRIPOS>SUBSTRUCTURE
     1 ZINC000508571532        1 TEMP              0 ****  ****    0 ROOT


##########                                Name:    ZINC000429196987
##########                DOCK_Rotatable_Bonds:                   7
##########                         Heavy_Atoms:                  28
##########                    Molecular_Weight:             403.505
##########                DOCK_Rotatable_Bonds:                   7
##########                       Formal_Charge:          -0.0399997
##########                     HBond_Acceptors:                   9
##########                        HBond_Donors:                   1
##########                         Heavy_Atoms:                  28
##########                          Grid_Score:          -32.445015
##########                     Grid_vdw_energy:          -31.657949
##########                      Grid_es_energy:           -0.787064
##########           Internal_energy_repulsive:           12.564985

@<TRIPOS>MOLECULE
ZINC000429196987
 53 55 1 0 0
SMALL
USER_CHARGES


@<TRIPOS>ATOM
      1 C1         -3.9681    3.1520   52.0040 C.3     1  ZINC000429196987    0.0800
      2 N2         -2.7385    3.9194   51.7906 N.am    1  ZINC000429196987   -0.6300
      3 C3         -2.4523    5.0906   52.6227 C.3     1  ZINC000429196987    0.1600
      4 C4         -1.7350    4.6546   53.8742 C.ar    1  ZINC000429196987   -0.0600
      5 C5         -0.3628    4.4872   53.8616 C.ar    1  ZINC000429196987   -0.1300
      6 C6          0.2952    4.0872   55.0097 C.ar    1  ZINC000429196987   -0.0300
      7 C7         -0.4189    3.8551   56.1703 C.ar    1  ZINC000429196987   -0.6600
      8 S8          0.4198    3.3448   57.6335 S.o2    1  ZINC000429196987    2.5000
      9 C9         -0.4473    1.8376   58.1501 C.3     1  ZINC000429196987   -0.6500
     10 O10         1.7357    3.0372   57.1940 O.2     1  ZINC000429196987   -0.9400
     11 O11         0.1837    4.3977   58.5581 O.2     1  ZINC000429196987   -0.9400
     12 C12        -1.7908    4.0238   56.1832 C.ar    1  ZINC000429196987   -0.0300
     13 C13        -2.4484    4.4275   55.0363 C.ar    1  ZINC000429196987   -0.1100
     14 C14        -1.8706    3.5478   50.8288 C.2     1  ZINC000429196987    0.7100
     15 O15        -0.8494    4.1837   50.6527 O.2     1  ZINC000429196987   -0.5800
     16 N16        -2.1346    2.4712   50.0622 N.am    1  ZINC000429196987   -0.7400
     17 C17        -1.1920    2.0683   49.0156 C.3     1  ZINC000429196987    0.1600
     18 C18        -1.2693    0.5524   48.8131 C.3     1  ZINC000429196987   -0.1300
     19 C19        -0.3275    0.1456   47.6775 C.3     1  ZINC000429196987    0.0700
     20 N20        -0.7157    0.8426   46.4447 N.3     1  ZINC000429196987   -0.4700
     21 C21         0.0362    0.3976   45.3629 C.ar    1  ZINC000429196987    0.2500
     22 C22         1.3594    0.8109   45.2120 C.ar    1  ZINC000429196987   -0.1300
     23 C23         2.0655    0.3391   44.1168 C.ar    1  ZINC000429196987   -0.1000
     24 C24         1.4133   -0.5148   43.2384 C.ar    1  ZINC000429196987    0.0200
     25 N25         0.1587   -0.8543   43.4583 N.ar    1  ZINC000429196987   -0.2200
     26 N26        -0.4997   -0.4256   44.4734 N.ar    1  ZINC000429196987   -0.2800
     27 C27        -0.6038    2.2985   46.6000 C.3     1  ZINC000429196987    0.0600
     28 C28        -1.5539    2.7696   47.7035 C.3     1  ZINC000429196987   -0.1200
     29 H29        -4.7642    3.5611   51.3820 H       1  ZINC000429196987    0.0600
     30 H30        -3.7969    2.1094   51.7358 H       1  ZINC000429196987    0.0700
     31 H31        -4.2579    3.2144   53.0529 H       1  ZINC000429196987    0.0800
     32 H32        -1.8235    5.7862   52.0670 H       1  ZINC000429196987    0.1000
     33 H33        -3.3872    5.5819   52.8923 H       1  ZINC000429196987    0.0900
     34 H34         0.1950    4.6686   52.9548 H       1  ZINC000429196987    0.1300
     35 H35         1.3671    3.9558   54.9998 H       1  ZINC000429196987    0.1400
     36 H36        -0.3785    1.0899   57.3599 H       1  ZINC000429196987    0.1300
     37 H37         0.0108    1.4484   59.0594 H       1  ZINC000429196987    0.1300
     38 H38        -1.4952    2.0688   58.3414 H       1  ZINC000429196987    0.1300
     39 H39        -2.3487    3.8428   57.0902 H       1  ZINC000429196987    0.1400
     40 H40        -3.5202    4.5592   55.0464 H       1  ZINC000429196987    0.1400
     41 H41        -2.9487    1.9630   50.2035 H       1  ZINC000429196987    0.4000
     42 H42        -0.1800    2.3462   49.3101 H       1  ZINC000429196987    0.0900
     43 H43        -0.9714    0.0470   49.7318 H       1  ZINC000429196987    0.0800
     44 H44        -2.2908    0.2711   48.5572 H       1  ZINC000429196987    0.0700
     45 H45         0.6955    0.4148   47.9402 H       1  ZINC000429196987    0.0600
     46 H46        -0.3909   -0.9312   47.5213 H       1  ZINC000429196987    0.0900
     47 H47         1.8193    1.4781   45.9259 H       1  ZINC000429196987    0.1500
     48 H48         3.0931    0.6276   43.9515 H       1  ZINC000429196987    0.1500
     49 H49         1.9336   -0.9010   42.3744 H       1  ZINC000429196987    0.1700
     50 H50         0.4205    2.5575   46.8676 H       1  ZINC000429196987    0.0500
     51 H51        -0.8679    2.7853   45.6612 H       1  ZINC000429196987    0.0900
     52 H52        -2.5799    2.5232   47.4301 H       1  ZINC000429196987    0.0800
     53 H53        -1.4593    3.8482   47.8292 H       1  ZINC000429196987    0.0800
@<TRIPOS>BOND
     1     1     2    1
     2     1    29    1
     3     1    30    1
     4     1    31    1
     5     2     3    1
     6     2    14   am
     7     3     4    1
     8     3    32    1
     9     3    33    1
    10     4    13   ar
    11     4     5   ar
    12     5     6   ar
    13     5    34    1
    14     6     7   ar
    15     6    35    1
    16     7     8    1
    17     7    12   ar
    18     8     9    1
    19     8    10    2
    20     8    11    2
    21     9    36    1
    22     9    37    1
    23     9    38    1
    24    12    13   ar
    25    12    39    1
    26    13    40    1
    27    14    15    2
    28    14    16   am
    29    16    17    1
    30    16    41    1
    31    17    28    1
    32    17    18    1
    33    17    42    1
    34    18    19    1
    35    18    43    1
    36    18    44    1
    37    19    20    1
    38    19    45    1
    39    19    46    1
    40    20    21    1
    41    20    27    1
    42    21    26   ar
    43    21    22   ar
    44    22    23   ar
    45    22    47    1
    46    23    24   ar
    47    23    48    1
    48    24    25   ar
    49    24    49    1
    50    25    26   ar
    51    27    28    1
    52    27    50    1
    53    27    51    1
    54    28    52    1
    55    28    53    1
@<TRIPOS>SUBSTRUCTURE
     1 ZINC000429196987        1 TEMP              0 ****  ****    0 ROOT


##########                                Name:    ZINC000534799364
##########                DOCK_Rotatable_Bonds:                   4
##########                         Heavy_Atoms:                  29
##########                    Molecular_Weight:             391.491
##########                DOCK_Rotatable_Bonds:                   4
##########                       Formal_Charge:           0.0199998
##########                     HBond_Acceptors:                   6
##########                        HBond_Donors:                   0
##########                         Heavy_Atoms:                  29
##########                          Grid_Score:          -32.438091
##########                     Grid_vdw_energy:          -31.470379
##########                      Grid_es_energy:           -0.967713
##########           Internal_energy_repulsive:           14.049869

@<TRIPOS>MOLECULE
ZINC000534799364
 55 59 1 0 0
SMALL
USER_CHARGES


@<TRIPOS>ATOM
      1 C1         -9.7109    2.5217   54.4102 C.3     1  ZINC000534799364   -0.1100
      2 C2         -9.6903    1.3106   53.5136 C.ar    1  ZINC000534799364   -0.0200
      3 C3        -10.7608    0.4323   53.4827 C.ar    1  ZINC000534799364   -0.1700
      4 C4        -10.7073   -0.6687   52.6480 C.ar    1  ZINC000534799364    0.1000
      5 N5         -9.6547   -0.8905   51.8855 N.ar    1  ZINC000534799364   -0.4800
      6 C6         -8.6149   -0.0803   51.8841 C.ar    1  ZINC000534799364    0.0800
      7 C7         -8.5966    1.0498   52.6912 C.ar    1  ZINC000534799364    0.0300
      8 N8         -7.4929    1.9064   52.6867 N.3     1  ZINC000534799364   -0.5000
      9 C9         -7.7335    3.0709   51.8231 C.3     1  ZINC000534799364    0.0600
     10 C10        -6.5369    4.0213   51.9076 C.3     1  ZINC000534799364    0.0600
     11 N11        -5.3187    3.3085   51.4983 N.3     1  ZINC000534799364   -0.5300
     12 C12        -4.1582    4.2092   51.4935 C.3     1  ZINC000534799364    0.1400
     13 C13        -2.9703    3.4948   50.9023 C.2     1  ZINC000534799364    0.1100
     14 N14        -2.9987    2.6733   49.8850 N.2     1  ZINC000534799364   -0.2800
     15 N15        -1.6939    2.2246   49.6480 N.pl3   1  ZINC000534799364   -0.3100
     16 C16        -1.2986    1.3299   48.6428 C.ar    1  ZINC000534799364    0.1500
     17 C17        -0.6035    0.1749   48.9745 C.ar    1  ZINC000534799364   -0.1000
     18 C18        -0.2151   -0.7049   47.9833 C.ar    1  ZINC000534799364   -0.1300
     19 C19        -0.5186   -0.4355   46.6593 C.ar    1  ZINC000534799364    0.1000
     20 F20        -0.1382   -1.2974   45.6911 F       1  ZINC000534799364   -0.1300
     21 C21        -1.2120    0.7163   46.3265 C.ar    1  ZINC000534799364   -0.1300
     22 C22        -1.6071    1.5955   47.3155 C.ar    1  ZINC000534799364   -0.0800
     23 C23        -0.8807    2.8075   50.5613 C.2     1  ZINC000534799364    0.0500
     24 C24        -1.6441    3.6015   51.3446 C.2     1  ZINC000534799364   -0.2200
     25 C25        -0.7884    4.2843   52.3899 C.3     1  ZINC000534799364   -0.0400
     26 C26         0.5274    3.4764   52.4198 C.3     1  ZINC000534799364   -0.1200
     27 C27         0.5670    2.8765   50.9963 C.3     1  ZINC000534799364   -0.0500
     28 C28        -5.0780    2.1440   52.3618 C.3     1  ZINC000534799364    0.0600
     29 C29        -6.2747    1.1936   52.2773 C.3     1  ZINC000534799364    0.0600
     30 H30       -10.0645    3.3851   53.8464 H       1  ZINC000534799364    0.0800
     31 H31       -10.3788    2.3393   55.2521 H       1  ZINC000534799364    0.0600
     32 H32        -8.7045    2.7169   54.7804 H       1  ZINC000534799364    0.0800
     33 H33       -11.6272    0.6052   54.1039 H       1  ZINC000534799364    0.1400
     34 H34       -11.5392   -1.3568   52.6204 H       1  ZINC000534799364    0.1600
     35 H35        -7.7705   -0.2952   51.2459 H       1  ZINC000534799364    0.1500
     36 H36        -7.8625    2.7392   50.7928 H       1  ZINC000534799364    0.0500
     37 H37        -8.6336    3.5891   52.1540 H       1  ZINC000534799364    0.0800
     38 H38        -6.7005    4.8717   51.2456 H       1  ZINC000534799364    0.0900
     39 H39        -6.4246    4.3744   52.9327 H       1  ZINC000534799364    0.0500
     40 H40        -4.3858    5.0919   50.8958 H       1  ZINC000534799364    0.1000
     41 H41        -3.9288    4.5115   52.5153 H       1  ZINC000534799364    0.0500
     42 H42        -0.3664   -0.0353   50.0070 H       1  ZINC000534799364    0.1400
     43 H43         0.3260   -1.6033   48.2410 H       1  ZINC000534799364    0.1500
     44 H44        -1.4474    0.9249   45.2934 H       1  ZINC000534799364    0.1500
     45 H45        -2.1480    2.4934   47.0557 H       1  ZINC000534799364    0.1400
     46 H46        -0.5921    5.3174   52.1027 H       1  ZINC000534799364    0.0800
     47 H47        -1.2779    4.2475   53.3631 H       1  ZINC000534799364    0.0700
     48 H48         1.3824    4.1309   52.5890 H       1  ZINC000534799364    0.0800
     49 H49         0.4848    2.6910   53.1745 H       1  ZINC000534799364    0.0800
     50 H50         1.0015    1.8771   51.0183 H       1  ZINC000534799364    0.0800
     51 H51         1.1361    3.5231   50.3283 H       1  ZINC000534799364    0.0900
     52 H52        -4.1780    1.6258   52.0310 H       1  ZINC000534799364    0.0900
     53 H53        -4.9491    2.4758   53.3920 H       1  ZINC000534799364    0.0500
     54 H54        -6.1111    0.3432   52.9393 H       1  ZINC000534799364    0.0800
     55 H55        -6.3870    0.8406   51.2522 H       1  ZINC000534799364    0.0500
@<TRIPOS>BOND
     1     1     2    1
     2     1    30    1
     3     1    31    1
     4     1    32    1
     5     2     7   ar
     6     2     3   ar
     7     3     4   ar
     8     3    33    1
     9     4     5   ar
    10     4    34    1
    11     5     6   ar
    12     6     7   ar
    13     6    35    1
    14     7     8    1
    15     8    29    1
    16     8     9    1
    17     9    10    1
    18     9    36    1
    19     9    37    1
    20    10    11    1
    21    10    38    1
    22    10    39    1
    23    11    12    1
    24    11    28    1
    25    12    13    1
    26    12    40    1
    27    12    41    1
    28    13    24    1
    29    13    14    2
    30    14    15    1
    31    15    16    1
    32    15    23    1
    33    16    22   ar
    34    16    17   ar
    35    17    18   ar
    36    17    42    1
    37    18    19   ar
    38    18    43    1
    39    19    20    1
    40    19    21   ar
    41    21    22   ar
    42    21    44    1
    43    22    45    1
    44    23    27    1
    45    23    24    2
    46    24    25    1
    47    25    26    1
    48    25    46    1
    49    25    47    1
    50    26    27    1
    51    26    48    1
    52    26    49    1
    53    27    50    1
    54    27    51    1
    55    28    29    1
    56    28    52    1
    57    28    53    1
    58    29    54    1
    59    29    55    1
@<TRIPOS>SUBSTRUCTURE
     1 ZINC000534799364        1 TEMP              0 ****  ****    0 ROOT


##########                                Name:    ZINC000624498741
##########                DOCK_Rotatable_Bonds:                   7
##########                         Heavy_Atoms:                  27
##########                    Molecular_Weight:             379.339
##########                DOCK_Rotatable_Bonds:                   7
##########                       Formal_Charge:           0.0300003
##########                     HBond_Acceptors:                   9
##########                        HBond_Donors:                   0
##########                         Heavy_Atoms:                  27
##########                          Grid_Score:          -32.400394
##########                     Grid_vdw_energy:          -30.938429
##########                      Grid_es_energy:           -1.461966
##########           Internal_energy_repulsive:           10.439240

@<TRIPOS>MOLECULE
ZINC000624498741
 43 45 1 0 0
SMALL
USER_CHARGES


@<TRIPOS>ATOM
      1 C1          2.3977   -0.0042   48.0037 C.3     1  ZINC000624498741   -0.1100
      2 C2          1.0889    0.6662   47.6739 C.ar    1  ZINC000624498741   -0.0900
      3 C3          0.3074    1.1832   48.6834 C.ar    1  ZINC000624498741   -0.0400
      4 C4         -0.9055    1.8049   48.3766 C.ar    1  ZINC000624498741   -0.0500
      5 C5         -1.7461    2.3608   49.4557 C.2     1  ZINC000624498741    0.2300
      6 N6         -3.0660    2.3294   49.5243 N.2     1  ZINC000624498741   -0.4700
      7 C7         -3.3812    2.9501   50.6717 C.2     1  ZINC000624498741    0.1800
      8 C8         -4.7711    3.1744   51.2090 C.3     1  ZINC000624498741   -0.0300
      9 C9         -5.2238    1.9362   51.9853 C.3     1  ZINC000624498741   -0.1300
     10 C10        -6.0243    1.0181   51.0594 C.3     1  ZINC000624498741    0.0900
     11 N11        -7.4014    0.9120   51.5481 N.am    1  ZINC000624498741   -0.5000
     12 C12        -8.1304    2.0392   51.7506 C.2     1  ZINC000624498741    0.1300
     13 C13        -9.4044    1.9665   52.2018 C.2     1  ZINC000624498741   -0.2300
     14 C14        -9.9835    0.7171   52.4646 C.2     1  ZINC000624498741   -0.0200
     15 C15        -9.2496   -0.4143   52.2601 C.2     1  ZINC000624498741   -0.2400
     16 C16        -7.9314   -0.3028   51.7860 C.2     1  ZINC000624498741    0.5100
     17 O17        -7.2635   -1.3071   51.5986 O.2     1  ZINC000624498741   -0.5500
     18 N18        -2.2705    3.3221   51.2363 N.2     1  ZINC000624498741   -0.3700
     19 O19        -1.3190    2.9914   50.5610 O.3     1  ZINC000624498741    0.0900
     20 C20        -1.3205    1.8995   47.0463 C.ar    1  ZINC000624498741   -0.0200
     21 C21        -0.5330    1.3799   46.0424 C.ar    1  ZINC000624498741   -0.1900
     22 C22         0.6750    0.7671   46.3512 C.ar    1  ZINC000624498741    0.1300
     23 O23         1.4482    0.2562   45.3589 O.3     1  ZINC000624498741   -0.3000
     24 C24         2.2666    1.1770   44.6348 C.3     1  ZINC000624498741    0.6000
     25 F25         1.5105    1.7755   43.6212 F       1  ZINC000624498741   -0.1600
     26 F26         2.7423    2.1630   45.5058 F       1  ZINC000624498741   -0.1300
     27 F27         3.3481    0.4940   44.0683 F       1  ZINC000624498741   -0.1600
     28 H28         3.1967    0.7373   48.0008 H       1  ZINC000624498741    0.0800
     29 H29         2.3322   -0.4638   48.9899 H       1  ZINC000624498741    0.0800
     30 H30         2.6110   -0.7710   47.2590 H       1  ZINC000624498741    0.0800
     31 H31         0.6316    1.1077   49.7108 H       1  ZINC000624498741    0.1500
     32 H32        -4.7688    4.0388   51.8730 H       1  ZINC000624498741    0.1000
     33 H33        -5.4563    3.3545   50.3806 H       1  ZINC000624498741    0.1000
     34 H34        -4.3502    1.4024   52.3596 H       1  ZINC000624498741    0.0800
     35 H35        -5.8497    2.2417   52.8237 H       1  ZINC000624498741    0.0800
     36 H36        -6.0275    1.4322   50.0512 H       1  ZINC000624498741    0.1100
     37 H37        -5.5668    0.0288   51.0444 H       1  ZINC000624498741    0.1000
     38 H38        -7.6890    3.0042   51.5497 H       1  ZINC000624498741    0.1600
     39 H39        -9.9742    2.8703   52.3598 H       1  ZINC000624498741    0.1500
     40 H40       -10.9994    0.6512   52.8252 H       1  ZINC000624498741    0.1400
     41 H41        -9.6785   -1.3859   52.4568 H       1  ZINC000624498741    0.1500
     42 H42        -2.2577    2.3790   46.8051 H       1  ZINC000624498741    0.1500
     43 H43        -0.8533    1.4523   45.0135 H       1  ZINC000624498741    0.1500
@<TRIPOS>BOND
     1     1     2    1
     2     1    28    1
     3     1    29    1
     4     1    30    1
     5     2    22   ar
     6     2     3   ar
     7     3     4   ar
     8     3    31    1
     9     4     5    1
    10     4    20   ar
    11     5    19    1
    12     5     6    2
    13     6     7    1
    14     7     8    1
    15     7    18    2
    16     8     9    1
    17     8    32    1
    18     8    33    1
    19     9    10    1
    20     9    34    1
    21     9    35    1
    22    10    11    1
    23    10    36    1
    24    10    37    1
    25    11    16   am
    26    11    12    1
    27    12    13    2
    28    12    38    1
    29    13    14    1
    30    13    39    1
    31    14    15    2
    32    14    40    1
    33    15    16    1
    34    15    41    1
    35    16    17    2
    36    18    19    1
    37    20    21   ar
    38    20    42    1
    39    21    22   ar
    40    21    43    1
    41    22    23    1
    42    23    24    1
    43    24    25    1
    44    24    26    1
    45    24    27    1
@<TRIPOS>SUBSTRUCTURE
     1 ZINC000624498741        1 TEMP              0 ****  ****    0 ROOT


##########                                Name:    ZINC001018437438
##########                DOCK_Rotatable_Bonds:                   8
##########                         Heavy_Atoms:                  24
##########                    Molecular_Weight:              333.39
##########                DOCK_Rotatable_Bonds:                   8
##########                       Formal_Charge:        -4.17233e-07
##########                     HBond_Acceptors:                   8
##########                        HBond_Donors:                   4
##########                         Heavy_Atoms:                  24
##########                          Grid_Score:          -32.398781
##########                     Grid_vdw_energy:          -30.664064
##########                      Grid_es_energy:           -1.734718
##########           Internal_energy_repulsive:           89.086105

@<TRIPOS>MOLECULE
ZINC001018437438
 47 49 1 0 0
SMALL
USER_CHARGES


@<TRIPOS>ATOM
      1 C1          2.3094    0.0007   46.4486 C.3     1  ZINC001018437438   -0.1400
      2 C2          0.8558   -0.1512   46.9011 C.3     1  ZINC001018437438    0.1400
      3 H3          0.4095   -1.0173   46.4123 H       1  ZINC001018437438    0.0700
      4 C4          0.8078   -0.3380   48.4208 C.3     1  ZINC001018437438   -0.1300
      5 C5         -0.6509   -0.3499   48.8836 C.3     1  ZINC001018437438   -0.1300
      6 C6         -1.3076    0.9892   48.5406 C.3     1  ZINC001018437438    0.1300
      7 H7         -0.7590    1.7977   49.0237 H       1  ZINC001018437438    0.1000
      8 N8         -2.6944    0.9888   49.0126 N.am    1  ZINC001018437438   -0.7200
      9 C9         -3.0919    1.8855   49.9369 C.2     1  ZINC001018437438    0.6000
     10 O10        -2.2996    2.6960   50.3782 O.2     1  ZINC001018437438   -0.5100
     11 C11        -4.4846    1.8839   50.4124 C.2     1  ZINC001018437438   -0.0400
     12 C12        -4.9273    2.1899   51.6876 C.2     1  ZINC001018437438   -0.1400
     13 C13        -6.3160    2.0464   51.6414 C.2     1  ZINC001018437438    0.0600
     14 C14        -7.2695    2.2696   52.7867 C.3     1  ZINC001018437438   -0.0800
     15 C15        -6.8167    3.2028   53.9114 C.3     1  ZINC001018437438   -0.1700
     16 C16        -7.8940    3.6595   52.9256 C.3     1  ZINC001018437438   -0.1600
     17 N17        -6.6419    1.6846   50.4268 N.2     1  ZINC001018437438   -0.2600
     18 N18        -5.5999    1.5860   49.6822 N.pl3   1  ZINC001018437438   -0.3800
     19 C19        -1.2836    1.1910   47.0223 C.3     1  ZINC001018437438    0.1000
     20 N20         0.1005    1.0580   46.5464 N.am    1  ZINC001018437438   -0.6100
     21 C21         0.6674    2.0290   45.8033 C.2     1  ZINC001018437438    0.5200
     22 O22         1.8121    1.9095   45.4206 O.2     1  ZINC001018437438   -0.4800
     23 C23        -0.1210    3.2632   45.4480 C.3     1  ZINC001018437438   -0.1700
     24 C24         0.6619    4.0931   44.4632 C.2     1  ZINC001018437438    0.5200
     25 N25         0.2354    4.2079   43.1898 N.am    1  ZINC001018437438   -0.8600
     26 O26         1.6754    4.6575   44.8165 O.2     1  ZINC001018437438   -0.5000
     27 H27         2.7232    0.9219   46.8589 H       1  ZINC001018437438    0.0700
     28 H28         2.8915   -0.8492   46.8047 H       1  ZINC001018437438    0.0500
     29 H29         2.3491    0.0378   45.3600 H       1  ZINC001018437438    0.0800
     30 H30         1.2815   -1.2832   48.6863 H       1  ZINC001018437438    0.0900
     31 H31         1.3365    0.4830   48.9051 H       1  ZINC001018437438    0.0700
     32 H32        -1.1850   -1.1559   48.3802 H       1  ZINC001018437438    0.0700
     33 H33        -0.6887   -0.5074   49.9615 H       1  ZINC001018437438    0.0800
     34 H34        -3.3267    0.3432   48.6600 H       1  ZINC001018437438    0.4000
     35 H35        -4.3269    2.4782   52.5377 H       1  ZINC001018437438    0.1700
     36 H36        -7.8843    1.4121   53.0606 H       1  ZINC001018437438    0.1200
     37 H37        -7.1334    2.9594   54.9256 H       1  ZINC001018437438    0.1000
     38 H38        -5.8291    3.6553   53.8229 H       1  ZINC001018437438    0.1000
     39 H39        -7.6150    4.4125   52.1885 H       1  ZINC001018437438    0.1000
     40 H40        -8.9192    3.7164   53.2911 H       1  ZINC001018437438    0.1000
     41 H41        -5.6038    1.3320   48.7461 H       1  ZINC001018437438    0.4400
     42 H42        -1.9066    0.4356   46.5434 H       1  ZINC001018437438    0.0700
     43 H43        -1.6596    2.1850   46.7797 H       1  ZINC001018437438    0.0900
     44 H44        -1.0717    2.9712   45.0021 H       1  ZINC001018437438    0.1200
     45 H45        -0.3066    3.8477   46.3490 H       1  ZINC001018437438    0.1200
     46 H46         0.7396    4.7410   42.5555 H       1  ZINC001018437438    0.4000
     47 H47        -0.5760    3.7573   42.9077 H       1  ZINC001018437438    0.4000
@<TRIPOS>BOND
     1     1     2    1
     2     1    27    1
     3     1    28    1
     4     1    29    1
     5     2     3    1
     6     2    20    1
     7     2     4    1
     8     4     5    1
     9     4    30    1
    10     4    31    1
    11     5     6    1
    12     5    32    1
    13     5    33    1
    14     6     7    1
    15     6     8    1
    16     6    19    1
    17     8     9   am
    18     8    34    1
    19     9    10    2
    20     9    11    1
    21    11    18    1
    22    11    12    2
    23    12    13    1
    24    12    35    1
    25    13    14    1
    26    13    17    2
    27    14    16    1
    28    14    15    1
    29    14    36    1
    30    15    16    1
    31    15    37    1
    32    15    38    1
    33    16    39    1
    34    16    40    1
    35    17    18    1
    36    18    41    1
    37    19    20    1
    38    19    42    1
    39    19    43    1
    40    20    21   am
    41    21    22    2
    42    21    23    1
    43    23    24    1
    44    23    44    1
    45    23    45    1
    46    24    25   am
    47    24    26    2
    48    25    46    1
    49    25    47    1
@<TRIPOS>SUBSTRUCTURE
     1 ZINC001018437438        1 TEMP              0 ****  ****    0 ROOT


##########                                Name:    ZINC001284642199
##########                DOCK_Rotatable_Bonds:                   8
##########                         Heavy_Atoms:                  25
##########                    Molecular_Weight:             346.516
##########                DOCK_Rotatable_Bonds:                   8
##########                       Formal_Charge:         -3.8743e-07
##########                     HBond_Acceptors:                   5
##########                        HBond_Donors:                   2
##########                         Heavy_Atoms:                  25
##########                          Grid_Score:          -32.397953
##########                     Grid_vdw_energy:          -31.915083
##########                      Grid_es_energy:           -0.482870
##########           Internal_energy_repulsive:           16.712479

@<TRIPOS>MOLECULE
ZINC001284642199
 59 60 1 0 0
SMALL
USER_CHARGES


@<TRIPOS>ATOM
      1 C1         -6.6340    0.7882   51.7002 C.3     1  ZINC001284642199   -0.1100
      2 C2         -8.0339    0.6531   52.2416 C.ar    1  ZINC001284642199   -0.1900
      3 C3         -8.5263    1.5572   53.1695 C.ar    1  ZINC001284642199    0.1500
      4 N4         -9.7607    1.4072   53.6222 N.ar    1  ZINC001284642199   -0.4900
      5 C5        -10.5180    0.4139   53.2015 C.ar    1  ZINC001284642199    0.3100
      6 C6        -11.9180    0.2789   53.7428 C.3     1  ZINC001284642199    0.1300
      7 N7        -11.9271   -0.6999   54.8382 N.3     1  ZINC001284642199   -0.6800
      8 C8        -13.3012   -1.0745   55.1980 C.3     1  ZINC001284642199    0.0500
      9 C9        -13.2719   -2.0499   56.3764 C.3     1  ZINC001284642199    0.1600
     10 H10       -12.9364   -3.0277   56.0304 H       1  ZINC001284642199    0.1000
     11 N11       -12.3503   -1.5515   57.4002 N.am    1  ZINC001284642199   -0.7200
     12 C12       -11.4105   -2.3683   57.9161 C.2     1  ZINC001284642199    0.5200
     13 O13       -11.3268   -3.5155   57.5316 O.2     1  ZINC001284642199   -0.5300
     14 C14       -10.4636   -1.8561   58.9706 C.3     1  ZINC001284642199   -0.1100
     15 H15        -9.7721   -2.6495   59.2543 H       1  ZINC001284642199    0.0900
     16 C16        -9.6759   -0.6679   58.4150 C.3     1  ZINC001284642199   -0.1000
     17 C17        -8.7145   -0.1478   59.4855 C.3     1  ZINC001284642199   -0.1100
     18 C18        -9.5112    0.2978   60.7134 C.3     1  ZINC001284642199   -0.0900
     19 H19       -10.2026    1.0912   60.4296 H       1  ZINC001284642199    0.0700
     20 C20        -8.5498    0.8177   61.7840 C.3     1  ZINC001284642199   -0.1500
     21 C21       -10.2988   -0.8904   61.2690 C.3     1  ZINC001284642199   -0.1100
     22 C22       -11.2602   -1.4104   60.1985 C.3     1  ZINC001284642199   -0.1100
     23 C23       -14.6762   -2.1737   56.9710 C.3     1  ZINC001284642199   -0.0800
     24 C24       -14.7471   -3.4190   57.8570 C.3     1  ZINC001284642199   -0.1400
     25 C25       -14.9859   -0.9324   57.8102 C.3     1  ZINC001284642199   -0.1400
     26 C26       -15.7000   -2.2933   55.8403 C.3     1  ZINC001284642199   -0.1300
     27 N27       -10.0819   -0.4674   52.3239 N.ar    1  ZINC001284642199   -0.5100
     28 C28        -8.8601   -0.3780   51.8232 C.ar    1  ZINC001284642199    0.1500
     29 H29        -5.9443    0.2293   52.3328 H       1  ZINC001284642199    0.0800
     30 H30        -6.5973    0.3929   50.6851 H       1  ZINC001284642199    0.0700
     31 H31        -6.3478    1.8398   51.6912 H       1  ZINC001284642199    0.0700
     32 H32        -7.9108    2.3731   53.5186 H       1  ZINC001284642199    0.1700
     33 H33       -12.5838   -0.0585   52.9485 H       1  ZINC001284642199    0.1000
     34 H34       -12.2578    1.2450   54.1160 H       1  ZINC001284642199    0.0600
     35 H35       -11.4259   -0.3492   55.6407 H       1  ZINC001284642199    0.3400
     36 H36       -13.7835   -1.5503   54.3442 H       1  ZINC001284642199    0.0900
     37 H37       -13.8593   -0.1815   55.4794 H       1  ZINC001284642199    0.0400
     38 H38       -12.4164   -0.6336   57.7069 H       1  ZINC001284642199    0.3900
     39 H39       -10.3673    0.1256   58.1311 H       1  ZINC001284642199    0.0700
     40 H40        -9.1083   -0.9852   57.5402 H       1  ZINC001284642199    0.0700
     41 H41        -8.1534    0.6986   59.0897 H       1  ZINC001284642199    0.0700
     42 H42        -8.0231   -0.9412   59.7694 H       1  ZINC001284642199    0.0600
     43 H43        -7.9887    1.6643   61.3882 H       1  ZINC001284642199    0.0500
     44 H44        -9.1173    1.1352   62.6588 H       1  ZINC001284642199    0.0500
     45 H45        -7.8585    0.0244   62.0678 H       1  ZINC001284642199    0.0500
     46 H46        -9.6075   -1.6839   61.5528 H       1  ZINC001284642199    0.0600
     47 H47       -10.8664   -0.5731   62.1438 H       1  ZINC001284642199    0.0700
     48 H48       -11.9516   -0.6170   59.9147 H       1  ZINC001284642199    0.0700
     49 H49       -11.8213   -2.2569   60.5942 H       1  ZINC001284642199    0.0600
     50 H50       -14.0176   -3.3338   58.6625 H       1  ZINC001284642199    0.0600
     51 H51       -15.7475   -3.5072   58.2805 H       1  ZINC001284642199    0.0600
     52 H52       -14.5264   -4.3033   57.2591 H       1  ZINC001284642199    0.0500
     53 H53       -14.9355   -0.0452   57.1790 H       1  ZINC001284642199    0.0600
     54 H54       -15.9864   -1.0206   58.2338 H       1  ZINC001284642199    0.0600
     55 H55       -14.2566   -0.8472   58.6157 H       1  ZINC001284642199    0.0600
     56 H56       -15.4794   -3.1775   55.2425 H       1  ZINC001284642199    0.0500
     57 H57       -16.7005   -2.3815   56.2640 H       1  ZINC001284642199    0.0500
     58 H58       -15.6496   -1.4061   55.2092 H       1  ZINC001284642199    0.0600
     59 H59        -8.5102   -1.1014   51.1016 H       1  ZINC001284642199    0.1700
@<TRIPOS>BOND
     1     1     2    1
     2     1    29    1
     3     1    30    1
     4     1    31    1
     5     2    28   ar
     6     2     3   ar
     7     3     4   ar
     8     3    32    1
     9     4     5   ar
    10     5     6    1
    11     5    27   ar
    12     6     7    1
    13     6    33    1
    14     6    34    1
    15     7     8    1
    16     7    35    1
    17     8     9    1
    18     8    36    1
    19     8    37    1
    20     9    10    1
    21     9    11    1
    22     9    23    1
    23    11    12   am
    24    11    38    1
    25    12    13    2
    26    12    14    1
    27    14    15    1
    28    14    22    1
    29    14    16    1
    30    16    17    1
    31    16    39    1
    32    16    40    1
    33    17    18    1
    34    17    41    1
    35    17    42    1
    36    18    19    1
    37    18    20    1
    38    18    21    1
    39    20    43    1
    40    20    44    1
    41    20    45    1
    42    21    22    1
    43    21    46    1
    44    21    47    1
    45    22    48    1
    46    22    49    1
    47    23    24    1
    48    23    25    1
    49    23    26    1
    50    24    50    1
    51    24    51    1
    52    24    52    1
    53    25    53    1
    54    25    54    1
    55    25    55    1
    56    26    56    1
    57    26    57    1
    58    26    58    1
    59    27    28   ar
    60    28    59    1
@<TRIPOS>SUBSTRUCTURE
     1 ZINC001284642199        1 TEMP              0 ****  ****    0 ROOT


##########                                Name:    ZINC000507831344
##########                DOCK_Rotatable_Bonds:                   6
##########                         Heavy_Atoms:                  31
##########                    Molecular_Weight:              422.53
##########                DOCK_Rotatable_Bonds:                   6
##########                       Formal_Charge:          -0.0200002
##########                     HBond_Acceptors:                   8
##########                        HBond_Donors:                   2
##########                         Heavy_Atoms:                  31
##########                          Grid_Score:          -32.393345
##########                     Grid_vdw_energy:          -31.375147
##########                      Grid_es_energy:           -1.018198
##########           Internal_energy_repulsive:          128.208588

@<TRIPOS>MOLECULE
ZINC000507831344
 61 64 1 0 0
SMALL
USER_CHARGES


@<TRIPOS>ATOM
      1 C1          0.5568    3.4330   46.8763 C.3     1  ZINC000507831344   -0.1000
      2 C2         -0.1793    2.3311   47.5941 C.ar    1  ZINC000507831344   -0.0800
      3 C3         -1.2274    2.6286   48.4453 C.ar    1  ZINC000507831344   -0.0800
      4 C4         -1.8799    1.5774   49.0878 C.ar    1  ZINC000507831344    0.0900
      5 N5         -2.9481    1.8321   49.9591 N.am    1  ZINC000507831344   -0.6700
      6 C6         -4.0163    2.5324   49.5291 C.2     1  ZINC000507831344    0.5100
      7 O7         -4.0534    2.9423   48.3881 O.2     1  ZINC000507831344   -0.5100
      8 C8         -5.1647    2.8062   50.4658 C.3     1  ZINC000507831344   -0.1400
      9 C9         -5.0016    1.9638   51.7326 C.3     1  ZINC000507831344   -0.0500
     10 C10        -6.3374    1.8192   52.4150 C.2     1  ZINC000507831344   -0.2200
     11 C11        -7.1651    0.7908   52.0916 C.2     1  ZINC000507831344    0.2100
     12 C12        -6.7575   -0.2166   51.0475 C.3     1  ZINC000507831344   -0.1400
     13 N13        -8.3650    0.6815   52.7217 N.pl3   1  ZINC000507831344   -0.3000
     14 N14        -9.4062   -0.2470   52.6048 N.am    1  ZINC000507831344   -0.5100
     15 C15       -10.3844    0.0985   53.4637 C.2     1  ZINC000507831344    0.5500
     16 O16       -11.4390   -0.4950   53.6213 O.2     1  ZINC000507831344   -0.5400
     17 C17        -9.9867    1.2496   54.1420 C.2     1  ZINC000507831344   -0.3500
     18 C18        -8.7247    1.6048   53.6711 C.2     1  ZINC000507831344    0.3500
     19 N19        -7.9029    2.6137   53.9831 N.2     1  ZINC000507831344   -0.4800
     20 C20        -6.7344    2.7392   53.3917 C.2     1  ZINC000507831344    0.2500
     21 C21        -5.8253    3.8834   53.7597 C.3     1  ZINC000507831344   -0.1200
     22 C22        -1.4599    0.2771   48.8541 C.ar    1  ZINC000507831344    0.0800
     23 N23        -0.4554    0.0293   48.0350 N.ar    1  ZINC000507831344   -0.4900
     24 C24         0.1835    1.0017   47.4041 C.ar    1  ZINC000507831344    0.2800
     25 N25         1.2373    0.6913   46.5489 N.3     1  ZINC000507831344   -0.4800
     26 C26         1.0791    1.3642   45.2532 C.3     1  ZINC000507831344    0.0600
     27 C27         2.1716    0.8881   44.2930 C.3     1  ZINC000507831344   -0.1200
     28 C28         3.5445    1.2078   44.8910 C.3     1  ZINC000507831344   -0.1200
     29 C29         3.6649    0.5351   46.2612 C.3     1  ZINC000507831344   -0.1100
     30 C30         2.5291    1.0212   47.1643 C.3     1  ZINC000507831344    0.0900
     31 H31         2.6047    2.1009   47.2935 H       1  ZINC000507831344    0.0600
     32 C32         2.6335    0.3361   48.5283 C.3     1  ZINC000507831344   -0.1400
     33 H33         0.1282    3.5693   45.8834 H       1  ZINC000507831344    0.0700
     34 H34         0.4648    4.3600   47.4422 H       1  ZINC000507831344    0.0600
     35 H35         1.6097    3.1664   46.7841 H       1  ZINC000507831344    0.0800
     36 H36        -1.5332    3.6513   48.6090 H       1  ZINC000507831344    0.1500
     37 H37        -2.9184    1.5044   50.8717 H       1  ZINC000507831344    0.4100
     38 H38        -5.1729    3.8634   50.7310 H       1  ZINC000507831344    0.1000
     39 H39        -6.1031    2.5472   49.9756 H       1  ZINC000507831344    0.1000
     40 H40        -4.6209    0.9776   51.4666 H       1  ZINC000507831344    0.0900
     41 H41        -4.3000    2.4543   52.4073 H       1  ZINC000507831344    0.1000
     42 H42        -6.2242   -1.0388   51.5246 H       1  ZINC000507831344    0.1000
     43 H43        -7.6464   -0.6015   50.5475 H       1  ZINC000507831344    0.0800
     44 H44        -6.1072    0.2620   50.3152 H       1  ZINC000507831344    0.1100
     45 H45        -9.4210   -1.0100   52.0060 H       1  ZINC000507831344    0.4400
     46 H46       -10.5552    1.7723   54.8969 H       1  ZINC000507831344    0.1700
     47 H47        -6.3025    4.4948   54.5257 H       1  ZINC000507831344    0.0900
     48 H48        -4.8836    3.4905   54.1431 H       1  ZINC000507831344    0.1000
     49 H49        -5.6322    4.4925   52.8766 H       1  ZINC000507831344    0.0900
     50 H50        -1.9602   -0.5424   49.3484 H       1  ZINC000507831344    0.1600
     51 H51         0.1005    1.1252   44.8370 H       1  ZINC000507831344    0.0700
     52 H52         1.1614    2.4422   45.3913 H       1  ZINC000507831344    0.0500
     53 H53         2.0813   -0.1878   44.1436 H       1  ZINC000507831344    0.0700
     54 H54         2.0633    1.3993   43.3364 H       1  ZINC000507831344    0.0700
     55 H55         4.3258    0.8317   44.2307 H       1  ZINC000507831344    0.0700
     56 H56         3.6502    2.2867   45.0043 H       1  ZINC000507831344    0.0600
     57 H57         3.5981   -0.5465   46.1428 H       1  ZINC000507831344    0.0700
     58 H58         4.6235    0.7939   46.7108 H       1  ZINC000507831344    0.0700
     59 H59         3.5523    0.6504   49.0234 H       1  ZINC000507831344    0.0600
     60 H60         1.7766    0.6150   49.1415 H       1  ZINC000507831344    0.0500
     61 H61         2.6459   -0.7453   48.3917 H       1  ZINC000507831344    0.0600
@<TRIPOS>BOND
     1     1     2    1
     2     1    33    1
     3     1    34    1
     4     1    35    1
     5     2    24   ar
     6     2     3   ar
     7     3     4   ar
     8     3    36    1
     9     4     5    1
    10     4    22   ar
    11     5     6   am
    12     5    37    1
    13     6     7    2
    14     6     8    1
    15     8     9    1
    16     8    38    1
    17     8    39    1
    18     9    10    1
    19     9    40    1
    20     9    41    1
    21    10    20    1
    22    10    11    2
    23    11    12    1
    24    11    13    1
    25    12    42    1
    26    12    43    1
    27    12    44    1
    28    13    18    1
    29    13    14    1
    30    14    15   am
    31    14    45    1
    32    15    16    2
    33    15    17    1
    34    17    18    2
    35    17    46    1
    36    18    19    1
    37    19    20    2
    38    20    21    1
    39    21    47    1
    40    21    48    1
    41    21    49    1
    42    22    23   ar
    43    22    50    1
    44    23    24   ar
    45    24    25    1
    46    25    30    1
    47    25    26    1
    48    26    27    1
    49    26    51    1
    50    26    52    1
    51    27    28    1
    52    27    53    1
    53    27    54    1
    54    28    29    1
    55    28    55    1
    56    28    56    1
    57    29    30    1
    58    29    57    1
    59    29    58    1
    60    30    31    1
    61    30    32    1
    62    32    59    1
    63    32    60    1
    64    32    61    1
@<TRIPOS>SUBSTRUCTURE
     1 ZINC000507831344        1 TEMP              0 ****  ****    0 ROOT


##########                                Name:    ZINC001310073555
##########                DOCK_Rotatable_Bonds:                  12
##########                         Heavy_Atoms:                  27
##########                    Molecular_Weight:             380.484
##########                DOCK_Rotatable_Bonds:                  12
##########                       Formal_Charge:          0.00999888
##########                     HBond_Acceptors:                   7
##########                        HBond_Donors:                   2
##########                         Heavy_Atoms:                  27
##########                          Grid_Score:          -32.359589
##########                     Grid_vdw_energy:          -31.967030
##########                      Grid_es_energy:           -0.392559
##########           Internal_energy_repulsive:           59.735115

@<TRIPOS>MOLECULE
ZINC001310073555
 59 59 1 0 0
SMALL
USER_CHARGES


@<TRIPOS>ATOM
      1 C1          1.3483    3.4419   49.4014 C.3     1  ZINC001310073555   -0.1600
      2 C2         -0.1800    3.5132   49.4122 C.3     1  ZINC001310073555   -0.1100
      3 C3         -0.7515    2.3216   48.6414 C.3     1  ZINC001310073555   -0.0600
      4 C4         -0.3171    1.0203   49.3187 C.3     1  ZINC001310073555   -0.1100
      5 C5         -1.0687   -0.1561   48.6926 C.3     1  ZINC001310073555   -0.1600
      6 C6         -2.2791    2.4060   48.6312 C.3     1  ZINC001310073555    0.1600
      7 N7         -2.7848    2.2694   49.9993 N.am    1  ZINC001310073555   -0.7400
      8 C8         -4.0805    1.9647   50.2115 C.2     1  ZINC001310073555    0.7100
      9 O9         -4.8293    1.8018   49.2675 O.2     1  ZINC001310073555   -0.5700
     10 N10        -4.5461    1.8406   51.4702 N.am    1  ZINC001310073555   -0.6700
     11 C11        -5.8955    1.5232   51.6914 C.ar    1  ZINC001310073555    0.1000
     12 C12        -6.3187    0.2049   51.6214 C.ar    1  ZINC001310073555   -0.0400
     13 C13        -7.6475   -0.1077   51.8390 C.ar    1  ZINC001310073555   -0.2200
     14 C14        -8.5599    0.8958   52.1283 C.ar    1  ZINC001310073555    0.1500
     15 O15        -9.8662    0.5851   52.3420 O.3     1  ZINC001310073555   -0.3200
     16 C16       -10.2330   -0.7912   52.2265 C.3     1  ZINC001310073555    0.0300
     17 C17        -8.1409    2.2162   52.2003 C.ar    1  ZINC001310073555   -0.2300
     18 C18        -6.8096    2.5320   51.9870 C.ar    1  ZINC001310073555    0.1400
     19 O19        -6.3969    3.8258   52.0572 O.3     1  ZINC001310073555   -0.3100
     20 C20        -6.5390    4.6170   50.8757 C.3     1  ZINC001310073555    0.0300
     21 C21        -0.2376    2.3463   47.2249 C.2     1  ZINC001310073555    0.4800
     22 O22        -0.8459    2.9485   46.3720 O.2     1  ZINC001310073555   -0.5000
     23 O23         0.8959    1.6996   46.9107 O.3     1  ZINC001310073555   -0.3400
     24 C24         1.3264    1.7590   45.5253 C.3     1  ZINC001310073555    0.1200
     25 C25         0.2362    1.1716   44.6269 C.3     1  ZINC001310073555   -0.1800
     26 C26         1.5812    3.2156   45.1325 C.3     1  ZINC001310073555   -0.1400
     27 C27         2.6155    0.9524   45.3569 C.3     1  ZINC001310073555   -0.1800
     28 H28         1.7555    4.2909   49.9506 H       1  ZINC001310073555    0.0600
     29 H29         1.6722    2.5145   49.8739 H       1  ZINC001310073555    0.0500
     30 H30         1.7062    3.4696   48.3722 H       1  ZINC001310073555    0.0600
     31 H31        -0.5378    3.4857   50.4414 H       1  ZINC001310073555    0.0800
     32 H32        -0.5037    4.4407   48.9397 H       1  ZINC001310073555    0.0800
     33 H33         0.7552    0.8802   49.1827 H       1  ZINC001310073555    0.0800
     34 H34        -0.5447    1.0715   50.3836 H       1  ZINC001310073555    0.0800
     35 H35        -2.1410   -0.0160   48.8287 H       1  ZINC001310073555    0.0600
     36 H36        -0.8412   -0.2074   47.6278 H       1  ZINC001310073555    0.0500
     37 H37        -0.7593   -1.0832   49.1752 H       1  ZINC001310073555    0.0600
     38 H38        -2.5871    3.3693   48.2246 H       1  ZINC001310073555    0.0800
     39 H39        -2.6832    1.6046   48.0127 H       1  ZINC001310073555    0.0800
     40 H40        -2.1872    2.3980   50.7525 H       1  ZINC001310073555    0.4000
     41 H41        -3.9488    1.9705   52.2234 H       1  ZINC001310073555    0.4100
     42 H42        -5.6099   -0.5783   51.3962 H       1  ZINC001310073555    0.1500
     43 H43        -7.9758   -1.1352   51.7834 H       1  ZINC001310073555    0.1300
     44 H44       -10.0090   -1.1437   51.2196 H       1  ZINC001310073555    0.0600
     45 H45        -9.6697   -1.3794   52.9510 H       1  ZINC001310073555    0.0600
     46 H46       -11.2999   -0.9004   52.4207 H       1  ZINC001310073555    0.1000
     47 H47        -8.8521    2.9971   52.4256 H       1  ZINC001310073555    0.1400
     48 H48        -6.1731    5.6255   51.0676 H       1  ZINC001310073555    0.1000
     49 H49        -5.9619    4.1689   50.0668 H       1  ZINC001310073555    0.0600
     50 H50        -7.5904    4.6599   50.5913 H       1  ZINC001310073555    0.0600
     51 H51        -0.6823    1.7463   44.7469 H       1  ZINC001310073555    0.0600
     52 H52         0.5593    1.2163   43.5868 H       1  ZINC001310073555    0.0700
     53 H53         0.0547    0.1339   44.9067 H       1  ZINC001310073555    0.0800
     54 H54         2.3578    3.6340   45.7726 H       1  ZINC001310073555    0.0700
     55 H55         1.9043    3.2602   44.0924 H       1  ZINC001310073555    0.0800
     56 H56         0.6628    3.7903   45.2525 H       1  ZINC001310073555    0.0700
     57 H57         2.4340   -0.0853   45.6367 H       1  ZINC001310073555    0.0800
     58 H58         2.9387    0.9970   44.3169 H       1  ZINC001310073555    0.0700
     59 H59         3.3923    1.3709   45.9969 H       1  ZINC001310073555    0.0600
@<TRIPOS>BOND
     1     1     2    1
     2     1    28    1
     3     1    29    1
     4     1    30    1
     5     2     3    1
     6     2    31    1
     7     2    32    1
     8     3     4    1
     9     3     6    1
    10     3    21    1
    11     4     5    1
    12     4    33    1
    13     4    34    1
    14     5    35    1
    15     5    36    1
    16     5    37    1
    17     6     7    1
    18     6    38    1
    19     6    39    1
    20     7     8   am
    21     7    40    1
    22     8     9    2
    23     8    10   am
    24    10    11    1
    25    10    41    1
    26    11    18   ar
    27    11    12   ar
    28    12    13   ar
    29    12    42    1
    30    13    14   ar
    31    13    43    1
    32    14    15    1
    33    14    17   ar
    34    15    16    1
    35    16    44    1
    36    16    45    1
    37    16    46    1
    38    17    18   ar
    39    17    47    1
    40    18    19    1
    41    19    20    1
    42    20    48    1
    43    20    49    1
    44    20    50    1
    45    21    22    2
    46    21    23    1
    47    23    24    1
    48    24    25    1
    49    24    26    1
    50    24    27    1
    51    25    51    1
    52    25    52    1
    53    25    53    1
    54    26    54    1
    55    26    55    1
    56    26    56    1
    57    27    57    1
    58    27    58    1
    59    27    59    1
@<TRIPOS>SUBSTRUCTURE
     1 ZINC001310073555        1 TEMP              0 ****  ****    0 ROOT


##########                                Name:    ZINC000579444893
##########                DOCK_Rotatable_Bonds:                   8
##########                         Heavy_Atoms:                  26
##########                    Molecular_Weight:             365.494
##########                DOCK_Rotatable_Bonds:                   8
##########                       Formal_Charge:         -0.00999993
##########                     HBond_Acceptors:                   7
##########                        HBond_Donors:                   1
##########                         Heavy_Atoms:                  26
##########                          Grid_Score:          -32.353306
##########                     Grid_vdw_energy:          -31.656509
##########                      Grid_es_energy:           -0.696797
##########           Internal_energy_repulsive:           29.304899

@<TRIPOS>MOLECULE
ZINC000579444893
 58 60 1 0 0
SMALL
USER_CHARGES


@<TRIPOS>ATOM
      1 C1          1.3753    1.0555   44.0961 C.3     1  ZINC000579444893   -0.1600
      2 C2          0.7546    2.0612   45.0679 C.3     1  ZINC000579444893    0.1700
      3 H3         -0.1958    2.4141   44.6677 H       1  ZINC000579444893    0.0900
      4 N4          0.5293    1.4139   46.3626 N.am    1  ZINC000579444893   -0.7400
      5 C5         -0.6241    1.6216   47.0282 C.2     1  ZINC000579444893    0.7100
      6 O6         -1.4770    2.3474   46.5547 O.2     1  ZINC000579444893   -0.5900
      7 N7         -0.8321    1.0248   48.2186 N.am    1  ZINC000579444893   -0.6300
      8 C8          0.1948    0.1489   48.7882 C.3     1  ZINC000579444893    0.0800
      9 C9         -2.0851    1.2519   48.9428 C.3     1  ZINC000579444893    0.1100
     10 C10        -2.1534    2.7109   49.3987 C.3     1  ZINC000579444893    0.0600
     11 H11        -2.1184    3.3718   48.5327 H       1  ZINC000579444893    0.1000
     12 C12        -0.9739    3.0213   50.3441 C.3     1  ZINC000579444893   -0.1600
     13 C13        -1.6134    3.9538   51.4063 C.3     1  ZINC000579444893    0.0800
     14 H14        -1.6536    4.9828   51.0491 H       1  ZINC000579444893    0.1000
     15 F15        -0.9255    3.8746   52.6219 F       1  ZINC000579444893   -0.2000
     16 C16        -3.0362    3.3545   51.5328 C.3     1  ZINC000579444893    0.0200
     17 N17        -3.3972    2.9421   50.1561 N.3     1  ZINC000579444893   -0.5000
     18 C18        -4.2364    1.7365   50.1706 C.3     1  ZINC000579444893    0.1000
     19 C19        -5.5075    2.0183   50.9294 C.2     1  ZINC000579444893    0.0800
     20 C20        -5.9187    1.3935   52.0570 C.2     1  ZINC000579444893   -0.2500
     21 C21        -7.1440    1.9517   52.4360 C.2     1  ZINC000579444893    0.0400
     22 N22        -7.4571    2.8784   51.5670 N.2     1  ZINC000579444893   -0.2900
     23 N23        -6.4369    2.9429   50.6092 N.pl3   1  ZINC000579444893   -0.3700
     24 C24        -6.3914    3.8478   49.4580 C.3     1  ZINC000579444893    0.0900
     25 C25         1.7036    3.2477   45.2491 C.3     1  ZINC000579444893   -0.1000
     26 C26         1.9931    3.9234   43.8858 C.3     1  ZINC000579444893   -0.1200
     27 C27         2.4084    5.3579   44.2968 C.3     1  ZINC000579444893   -0.1300
     28 C28         1.4778    5.6971   45.4794 C.3     1  ZINC000579444893   -0.1300
     29 C29         1.0296    4.3554   46.0849 C.3     1  ZINC000579444893   -0.1200
     30 H30         0.7434    0.1694   44.0376 H       1  ZINC000579444893    0.0600
     31 H31         1.4581    1.5086   43.1081 H       1  ZINC000579444893    0.0700
     32 H32         2.3665    0.7724   44.4501 H       1  ZINC000579444893    0.0500
     33 H33         1.2102    0.8359   46.7409 H       1  ZINC000579444893    0.4000
     34 H34         0.9250    0.7498   49.3302 H       1  ZINC000579444893    0.0600
     35 H35        -0.2713   -0.5606   49.4720 H       1  ZINC000579444893    0.0800
     36 H36         0.6947   -0.3942   47.9862 H       1  ZINC000579444893    0.0700
     37 H37        -2.9283    1.0364   48.2866 H       1  ZINC000579444893    0.0900
     38 H38        -2.1255    0.5971   49.8133 H       1  ZINC000579444893    0.0900
     39 H39        -0.6008    2.1081   50.8075 H       1  ZINC000579444893    0.1100
     40 H40        -0.1764    3.5367   49.8089 H       1  ZINC000579444893    0.0800
     41 H41        -3.0267    2.4915   52.1987 H       1  ZINC000579444893    0.0600
     42 H42        -3.7344    4.1080   51.8970 H       1  ZINC000579444893    0.0900
     43 H43        -4.4798    1.4508   49.1473 H       1  ZINC000579444893    0.1100
     44 H44        -3.6961    0.9236   50.6560 H       1  ZINC000579444893    0.0500
     45 H45        -5.3938    0.6032   52.5731 H       1  ZINC000579444893    0.1500
     46 H46        -7.7304    1.6666   53.2969 H       1  ZINC000579444893    0.1800
     47 H47        -5.8409    4.7496   49.7263 H       1  ZINC000579444893    0.0800
     48 H48        -5.8927    3.3519   48.6254 H       1  ZINC000579444893    0.0800
     49 H49        -7.4069    4.1155   49.1660 H       1  ZINC000579444893    0.0900
     50 H50         2.6312    2.9244   45.7216 H       1  ZINC000579444893    0.0800
     51 H51         2.8092    3.4179   43.3697 H       1  ZINC000579444893    0.0700
     52 H52         1.0965    3.9434   43.2665 H       1  ZINC000579444893    0.0700
     53 H53         3.4510    5.3771   44.6142 H       1  ZINC000579444893    0.0700
     54 H54         2.2468    6.0527   43.4727 H       1  ZINC000579444893    0.0700
     55 H55         2.0182    6.2810   46.2243 H       1  ZINC000579444893    0.0600
     56 H56         0.6109    6.2545   45.1244 H       1  ZINC000579444893    0.0600
     57 H57        -0.0546    4.2617   46.0238 H       1  ZINC000579444893    0.0600
     58 H58         1.3526    4.2881   47.1237 H       1  ZINC000579444893    0.0600
@<TRIPOS>BOND
     1     1     2    1
     2     1    30    1
     3     1    31    1
     4     1    32    1
     5     2     3    1
     6     2     4    1
     7     2    25    1
     8     4     5   am
     9     4    33    1
    10     5     6    2
    11     5     7   am
    12     7     8    1
    13     7     9    1
    14     8    34    1
    15     8    35    1
    16     8    36    1
    17     9    10    1
    18     9    37    1
    19     9    38    1
    20    10    11    1
    21    10    17    1
    22    10    12    1
    23    12    13    1
    24    12    39    1
    25    12    40    1
    26    13    14    1
    27    13    15    1
    28    13    16    1
    29    16    17    1
    30    16    41    1
    31    16    42    1
    32    17    18    1
    33    18    19    1
    34    18    43    1
    35    18    44    1
    36    19    23    1
    37    19    20    2
    38    20    21    1
    39    20    45    1
    40    21    22    2
    41    21    46    1
    42    22    23    1
    43    23    24    1
    44    24    47    1
    45    24    48    1
    46    24    49    1
    47    25    29    1
    48    25    26    1
    49    25    50    1
    50    26    27    1
    51    26    51    1
    52    26    52    1
    53    27    28    1
    54    27    53    1
    55    27    54    1
    56    28    29    1
    57    28    55    1
    58    28    56    1
    59    29    57    1
    60    29    58    1
@<TRIPOS>SUBSTRUCTURE
     1 ZINC000579444893        1 TEMP              0 ****  ****    0 ROOT


##########                                Name:    ZINC000864477301
##########                DOCK_Rotatable_Bonds:                   6
##########                         Heavy_Atoms:                  26
##########                    Molecular_Weight:             393.891
##########                DOCK_Rotatable_Bonds:                   6
##########                       Formal_Charge:         -0.00999978
##########                     HBond_Acceptors:                   7
##########                        HBond_Donors:                   1
##########                         Heavy_Atoms:                  26
##########                          Grid_Score:          -32.347813
##########                     Grid_vdw_energy:          -32.429756
##########                      Grid_es_energy:            0.081944
##########           Internal_energy_repulsive:            8.778819

@<TRIPOS>MOLECULE
ZINC000864477301
 46 47 1 0 0
SMALL
USER_CHARGES


@<TRIPOS>ATOM
      1 C1         -8.1562    1.0231   52.1361 C.3     1  ZINC000864477301   -0.1500
      2 C2         -7.1107    0.1156   51.4848 C.3     1  ZINC000864477301    0.0600
      3 O3         -5.7925    0.7025   51.6462 O.3     1  ZINC000864477301   -0.3500
      4 C4         -5.4065    1.6029   50.7217 C.2     1  ZINC000864477301    0.5100
      5 O5         -6.1869    1.9661   49.8646 O.2     1  ZINC000864477301   -0.5000
      6 C6         -4.0341    2.1487   50.7499 C.ar    1  ZINC000864477301   -0.1400
      7 C7         -3.5953    2.8862   51.8511 C.ar    1  ZINC000864477301   -0.0300
      8 C8         -2.3122    3.3931   51.8709 C.ar    1  ZINC000864477301   -0.1500
      9 C9         -1.4613    3.1724   50.8027 C.ar    1  ZINC000864477301   -0.0100
     10 C10        -1.8898    2.4422   49.7080 C.ar    1  ZINC000864477301   -0.4900
     11 S11        -0.7977    2.1672   48.3528 S.o     1  ZINC000864477301    1.3800
     12 O12        -1.6861    1.9307   47.2692 O.2     1  ZINC000864477301   -0.8100
     13 C13         0.0309    0.6180   48.8045 C.3     1  ZINC000864477301   -0.4600
     14 H14         0.6314    0.7750   49.7005 H       1  ZINC000864477301    0.1400
     15 C15        -1.0188   -0.4613   49.0766 C.3     1  ZINC000864477301   -0.1400
     16 C16         0.9231    0.1770   47.6729 C.2     1  ZINC000864477301    0.5500
     17 O17         0.6704   -0.8403   47.0625 O.2     1  ZINC000864477301   -0.5100
     18 N18         2.0016    0.9128   47.3390 N.am    1  ZINC000864477301   -0.6800
     19 C19         2.8303    0.5032   46.2878 C.ar    1  ZINC000864477301    0.1400
     20 C20         3.7974   -0.4691   46.5029 C.ar    1  ZINC000864477301   -0.0600
     21 C21         3.9567   -1.0852   47.8689 C.3     1  ZINC000864477301   -0.1100
     22 C22         4.6136   -0.8718   45.4634 C.ar    1  ZINC000864477301   -0.1100
     23 C23         4.4683   -0.3077   44.2096 C.ar    1  ZINC000864477301   -0.1000
     24 C24         3.5063    0.6617   43.9912 C.ar    1  ZINC000864477301   -0.1100
     25 C25         2.6828    1.0649   45.0250 C.ar    1  ZINC000864477301   -0.0200
     26 Cl26        1.4750    2.2811   44.7504 Cl      1  ZINC000864477301   -0.0600
     27 C27        -3.1678    1.9244   49.6778 C.ar    1  ZINC000864477301    0.0100
     28 H28        -7.9337    1.1302   53.1978 H       1  ZINC000864477301    0.0700
     29 H29        -8.1341    2.0032   51.6595 H       1  ZINC000864477301    0.0700
     30 H30        -9.1458    0.5825   52.0149 H       1  ZINC000864477301    0.0800
     31 H31        -7.1329   -0.8645   51.9613 H       1  ZINC000864477301    0.0700
     32 H32        -7.3333    0.0085   50.4232 H       1  ZINC000864477301    0.0700
     33 H33        -4.2588    3.0599   52.6854 H       1  ZINC000864477301    0.1400
     34 H34        -1.9715    3.9639   52.7221 H       1  ZINC000864477301    0.1400
     35 H35        -0.4583    3.5721   50.8230 H       1  ZINC000864477301    0.1500
     36 H36        -0.5209   -1.3922   49.3481 H       1  ZINC000864477301    0.0700
     37 H37        -1.6641   -0.1424   49.8952 H       1  ZINC000864477301    0.0700
     38 H38        -1.6193   -0.6184   48.1806 H       1  ZINC000864477301    0.0700
     39 H39         2.2038    1.7263   47.8272 H       1  ZINC000864477301    0.4100
     40 H40         3.3166   -1.9640   47.9480 H       1  ZINC000864477301    0.0800
     41 H41         4.9961   -1.3784   48.0163 H       1  ZINC000864477301    0.0700
     42 H42         3.6725   -0.3591   48.6305 H       1  ZINC000864477301    0.0700
     43 H43         5.3663   -1.6279   45.6305 H       1  ZINC000864477301    0.1400
     44 H44         5.1077   -0.6245   43.3989 H       1  ZINC000864477301    0.1400
     45 H45         3.3955    1.1006   43.0106 H       1  ZINC000864477301    0.1400
     46 H46        -3.5008    1.3545   48.8230 H       1  ZINC000864477301    0.1400
@<TRIPOS>BOND
     1     1     2    1
     2     1    28    1
     3     1    29    1
     4     1    30    1
     5     2     3    1
     6     2    31    1
     7     2    32    1
     8     3     4    1
     9     4     5    2
    10     4     6    1
    11     6    27   ar
    12     6     7   ar
    13     7     8   ar
    14     7    33    1
    15     8     9   ar
    16     8    34    1
    17     9    10   ar
    18     9    35    1
    19    10    11    1
    20    10    27   ar
    21    11    12    2
    22    11    13    1
    23    13    14    1
    24    13    15    1
    25    13    16    1
    26    15    36    1
    27    15    37    1
    28    15    38    1
    29    16    17    2
    30    16    18   am
    31    18    19    1
    32    18    39    1
    33    19    25   ar
    34    19    20   ar
    35    20    21    1
    36    20    22   ar
    37    21    40    1
    38    21    41    1
    39    21    42    1
    40    22    23   ar
    41    22    43    1
    42    23    24   ar
    43    23    44    1
    44    24    25   ar
    45    24    45    1
    46    25    26    1
    47    27    46    1
@<TRIPOS>SUBSTRUCTURE
     1 ZINC000864477301        1 TEMP              0 ****  ****    0 ROOT


##########                                Name:    ZINC000051488227
##########                DOCK_Rotatable_Bonds:                   8
##########                         Heavy_Atoms:                  30
##########                    Molecular_Weight:             403.478
##########                DOCK_Rotatable_Bonds:                   8
##########                       Formal_Charge:           0.0199996
##########                     HBond_Acceptors:                   5
##########                        HBond_Donors:                   0
##########                         Heavy_Atoms:                  30
##########                          Grid_Score:          -32.346088
##########                     Grid_vdw_energy:          -31.261032
##########                      Grid_es_energy:           -1.085057
##########           Internal_energy_repulsive:           23.884441

@<TRIPOS>MOLECULE
ZINC000051488227
 55 58 1 0 0
SMALL
USER_CHARGES


@<TRIPOS>ATOM
      1 O1        -10.4187    1.8479   59.4549 O.2     1  ZINC000051488227   -0.5000
      2 C2         -9.5770    1.0131   59.2212 C.2     1  ZINC000051488227    0.4800
      3 O3         -8.4087    1.3745   58.6678 O.3     1  ZINC000051488227   -0.3400
      4 C4         -8.1411    2.7979   58.5636 C.3     1  ZINC000051488227    0.1100
      5 C5         -7.8042    3.1425   57.1357 C.ar    1  ZINC000051488227   -0.1400
      6 C6         -8.7435    3.7676   56.3366 C.ar    1  ZINC000051488227   -0.0500
      7 C7         -8.4372    4.0845   55.0274 C.ar    1  ZINC000051488227   -0.1500
      8 C8         -7.1857    3.7753   54.5146 C.ar    1  ZINC000051488227    0.1500
      9 O9         -6.8818    4.0864   53.2271 O.3     1  ZINC000051488227   -0.3100
     10 C10        -7.8554    3.7591   52.2335 C.3     1  ZINC000051488227    0.1100
     11 C11        -7.9748    2.2610   52.1217 C.ar    1  ZINC000051488227    0.1200
     12 C12        -6.9578    1.5372   51.5292 C.ar    1  ZINC000051488227   -0.1500
     13 C13        -7.0773    0.1591   51.4317 C.ar    1  ZINC000051488227   -0.0700
     14 C14        -8.2205   -0.4414   51.9360 C.ar    1  ZINC000051488227   -0.1700
     15 C15        -9.1963    0.3480   52.5153 C.ar    1  ZINC000051488227    0.1100
     16 N16        -9.0464    1.6556   52.5953 N.ar    1  ZINC000051488227   -0.4800
     17 C17        -6.2449    3.1485   55.3187 C.ar    1  ZINC000051488227   -0.2100
     18 C18        -6.5545    2.8380   56.6287 C.ar    1  ZINC000051488227   -0.0500
     19 C19        -9.8363   -0.4329   59.5570 C.3     1  ZINC000051488227    0.0000
     20 C20       -10.3695   -1.1451   58.3406 C.ar    1  ZINC000051488227   -0.0900
     21 C21       -10.5399   -0.4550   57.1550 C.ar    1  ZINC000051488227   -0.1100
     22 C22       -11.0289   -1.1082   56.0392 C.ar    1  ZINC000051488227   -0.1200
     23 C23       -11.3471   -2.4516   56.1088 C.ar    1  ZINC000051488227   -0.1100
     24 C24       -11.1758   -3.1419   57.2942 C.ar    1  ZINC000051488227   -0.1200
     25 C25       -10.6827   -2.4898   58.4088 C.ar    1  ZINC000051488227   -0.1000
     26 C26        -8.5318   -1.0956   60.0102 C.3     1  ZINC000051488227   -0.1400
     27 C27        -8.0404   -0.4146   61.2902 C.3     1  ZINC000051488227    0.0600
     28 O28        -9.0527   -0.5044   62.2948 O.3     1  ZINC000051488227   -0.3800
     29 C29       -10.2800    0.1392   61.9455 C.3     1  ZINC000051488227    0.0500
     30 C30       -10.8613   -0.5197   60.6919 C.3     1  ZINC000051488227   -0.1400
     31 H31        -9.0236    3.3573   58.8739 H       1  ZINC000051488227    0.0800
     32 H32        -7.3011    3.0577   59.2079 H       1  ZINC000051488227    0.0800
     33 H33        -9.7177    4.0081   56.7362 H       1  ZINC000051488227    0.1300
     34 H34        -9.1715    4.5722   54.4034 H       1  ZINC000051488227    0.1400
     35 H35        -8.8198    4.1804   52.5172 H       1  ZINC000051488227    0.0900
     36 H36        -7.5470    4.1718   51.2729 H       1  ZINC000051488227    0.0900
     37 H37        -6.0810    2.0384   51.1466 H       1  ZINC000051488227    0.1400
     38 H38        -6.2985   -0.4323   50.9734 H       1  ZINC000051488227    0.1400
     39 H39        -8.3474   -1.5122   51.8768 H       1  ZINC000051488227    0.1400
     40 H40       -10.0901   -0.1120   52.9102 H       1  ZINC000051488227    0.1600
     41 H41        -5.2701    2.9064   54.9218 H       1  ZINC000051488227    0.1300
     42 H42        -5.8222    2.3503   57.2552 H       1  ZINC000051488227    0.1300
     43 H43       -10.2913    0.5946   57.1006 H       1  ZINC000051488227    0.1300
     44 H44       -11.1629   -0.5689   55.1132 H       1  ZINC000051488227    0.1300
     45 H45       -11.7299   -2.9618   55.2372 H       1  ZINC000051488227    0.1200
     46 H46       -11.4246   -4.1915   57.3486 H       1  ZINC000051488227    0.1200
     47 H47       -10.5488   -3.0292   59.3348 H       1  ZINC000051488227    0.1300
     48 H48        -8.7091   -2.1533   60.2054 H       1  ZINC000051488227    0.0900
     49 H49        -7.7789   -0.9898   59.2292 H       1  ZINC000051488227    0.0900
     50 H50        -7.1352   -0.9100   61.6411 H       1  ZINC000051488227    0.1000
     51 H51        -7.8246    0.6338   61.0843 H       1  ZINC000051488227    0.0500
     52 H52       -10.9881    0.0427   62.7685 H       1  ZINC000051488227    0.1000
     53 H53       -10.0935    1.1948   61.7482 H       1  ZINC000051488227    0.0700
     54 H54       -11.7744   -0.0018   60.3983 H       1  ZINC000051488227    0.0900
     55 H55       -11.0857   -1.5656   60.9008 H       1  ZINC000051488227    0.0900
@<TRIPOS>BOND
     1     1     2    2
     2     2     3    1
     3     2    19    1
     4     3     4    1
     5     4     5    1
     6     4    31    1
     7     4    32    1
     8     5    18   ar
     9     5     6   ar
    10     6     7   ar
    11     6    33    1
    12     7     8   ar
    13     7    34    1
    14     8     9    1
    15     8    17   ar
    16     9    10    1
    17    10    11    1
    18    10    35    1
    19    10    36    1
    20    11    16   ar
    21    11    12   ar
    22    12    13   ar
    23    12    37    1
    24    13    14   ar
    25    13    38    1
    26    14    15   ar
    27    14    39    1
    28    15    16   ar
    29    15    40    1
    30    17    18   ar
    31    17    41    1
    32    18    42    1
    33    19    30    1
    34    19    20    1
    35    19    26    1
    36    20    25   ar
    37    20    21   ar
    38    21    22   ar
    39    21    43    1
    40    22    23   ar
    41    22    44    1
    42    23    24   ar
    43    23    45    1
    44    24    25   ar
    45    24    46    1
    46    25    47    1
    47    26    27    1
    48    26    48    1
    49    26    49    1
    50    27    28    1
    51    27    50    1
    52    27    51    1
    53    28    29    1
    54    29    30    1
    55    29    52    1
    56    29    53    1
    57    30    54    1
    58    30    55    1
@<TRIPOS>SUBSTRUCTURE
     1 ZINC000051488227        1 TEMP              0 ****  ****    0 ROOT


##########                                Name:    ZINC000506388363
##########                DOCK_Rotatable_Bonds:                   5
##########                         Heavy_Atoms:                  29
##########                    Molecular_Weight:             416.858
##########                DOCK_Rotatable_Bonds:                   5
##########                       Formal_Charge:         7.07805e-07
##########                     HBond_Acceptors:                   8
##########                        HBond_Donors:                   1
##########                         Heavy_Atoms:                  29
##########                          Grid_Score:          -32.252457
##########                     Grid_vdw_energy:          -32.408844
##########                      Grid_es_energy:            0.156386
##########           Internal_energy_repulsive:            9.229731

@<TRIPOS>MOLECULE
ZINC000506388363
 48 51 1 0 0
SMALL
USER_CHARGES


@<TRIPOS>ATOM
      1 O1         -9.1657    4.1321   50.9197 O.2     1  ZINC000506388363   -0.5300
      2 C2         -8.3778    3.5757   51.6593 C.2     1  ZINC000506388363    0.5600
      3 C3         -8.8655    2.8754   52.8667 C.ar    1  ZINC000506388363   -0.1200
      4 C4         -8.7026    3.4542   54.1262 C.ar    1  ZINC000506388363   -0.0900
      5 C5         -9.1602    2.7963   55.2495 C.ar    1  ZINC000506388363   -0.1100
      6 C6         -9.7789    1.5650   55.1298 C.ar    1  ZINC000506388363   -0.0900
      7 C7         -9.9439    0.9846   53.8833 C.ar    1  ZINC000506388363   -0.0400
      8 Cl8       -10.7222   -0.5609   53.7433 Cl      1  ZINC000506388363   -0.0600
      9 C9         -9.4957    1.6354   52.7512 C.ar    1  ZINC000506388363   -0.0600
     10 N10        -7.0603    3.5923   51.3759 N.am    1  ZINC000506388363   -0.6100
     11 C11        -6.0913    2.9150   52.2509 C.3     1  ZINC000506388363    0.1000
     12 C12        -5.2101    2.0048   51.3888 C.3     1  ZINC000506388363    0.0400
     13 N13        -4.6184    2.7915   50.2983 N.3     1  ZINC000506388363   -0.5300
     14 C14        -3.6334    1.9980   49.5513 C.3     1  ZINC000506388363    0.1200
     15 C15        -2.2430    2.4493   49.9176 C.2     1  ZINC000506388363   -0.2100
     16 C16        -1.9203    3.3036   50.9131 C.2     1  ZINC000506388363    0.0600
     17 N17        -0.5781    3.4514   50.9169 N.pl3   1  ZINC000506388363   -0.4700
     18 N18        -0.0494    2.6615   49.8881 N.2     1  ZINC000506388363   -0.2700
     19 C19        -1.0483    2.0508   49.2867 C.2     1  ZINC000506388363    0.1300
     20 C20        -0.9366    1.1159   48.1397 C.ar    1  ZINC000506388363   -0.0700
     21 C21        -1.2346    1.5523   46.8486 C.ar    1  ZINC000506388363    0.1500
     22 F22        -1.6255    2.8283   46.6386 F       1  ZINC000506388363   -0.1200
     23 C23        -1.1285    0.6761   45.7844 C.ar    1  ZINC000506388363   -0.1600
     24 C24        -0.7281   -0.6303   45.9975 C.ar    1  ZINC000506388363   -0.0500
     25 C25        -0.4313   -1.0692   47.2749 C.ar    1  ZINC000506388363   -0.1600
     26 C26        -0.5277   -0.2017   48.3471 C.ar    1  ZINC000506388363    0.1600
     27 F27        -0.2374   -0.6319   49.5944 F       1  ZINC000506388363   -0.1200
     28 C28        -5.6539    3.3239   49.4027 C.3     1  ZINC000506388363    0.0400
     29 C29        -6.5540    4.2829   50.1801 C.3     1  ZINC000506388363    0.1200
     30 H30        -8.2191    4.4153   54.2214 H       1  ZINC000506388363    0.1400
     31 H31        -9.0346    3.2436   56.2244 H       1  ZINC000506388363    0.1400
     32 H32       -10.1345    1.0540   56.0123 H       1  ZINC000506388363    0.1400
     33 H33        -9.6249    1.1824   51.7794 H       1  ZINC000506388363    0.1400
     34 H34        -5.4704    3.6569   52.7530 H       1  ZINC000506388363    0.0800
     35 H35        -6.6223    2.3164   52.9910 H       1  ZINC000506388363    0.1000
     36 H36        -4.4161    1.5796   52.0028 H       1  ZINC000506388363    0.0900
     37 H37        -5.8166    1.2017   50.9702 H       1  ZINC000506388363    0.0400
     38 H38        -3.7509    0.9438   49.8016 H       1  ZINC000506388363    0.1000
     39 H39        -3.7906    2.1373   48.4817 H       1  ZINC000506388363    0.0400
     40 H40        -2.6139    3.7841   51.5872 H       1  ZINC000506388363    0.1800
     41 H41        -0.0685    4.0082   51.5262 H       1  ZINC000506388363    0.4400
     42 H42        -1.3593    1.0126   44.7843 H       1  ZINC000506388363    0.1500
     43 H43        -0.6471   -1.3108   45.1629 H       1  ZINC000506388363    0.1500
     44 H44        -0.1194   -2.0908   47.4347 H       1  ZINC000506388363    0.1500
     45 H45        -5.1819    3.8552   48.5762 H       1  ZINC000506388363    0.0900
     46 H46        -6.2543    2.5024   49.0119 H       1  ZINC000506388363    0.0400
     47 H47        -7.3898    4.5911   49.5519 H       1  ZINC000506388363    0.1000
     48 H48        -5.9797    5.1577   50.4854 H       1  ZINC000506388363    0.0800
@<TRIPOS>BOND
     1     1     2    2
     2     2     3    1
     3     2    10   am
     4     3     9   ar
     5     3     4   ar
     6     4     5   ar
     7     4    30    1
     8     5     6   ar
     9     5    31    1
    10     6     7   ar
    11     6    32    1
    12     7     8    1
    13     7     9   ar
    14     9    33    1
    15    10    29    1
    16    10    11    1
    17    11    12    1
    18    11    34    1
    19    11    35    1
    20    12    13    1
    21    12    36    1
    22    12    37    1
    23    13    14    1
    24    13    28    1
    25    14    15    1
    26    14    38    1
    27    14    39    1
    28    15    19    1
    29    15    16    2
    30    16    17    1
    31    16    40    1
    32    17    18    1
    33    17    41    1
    34    18    19    2
    35    19    20    1
    36    20    26   ar
    37    20    21   ar
    38    21    22    1
    39    21    23   ar
    40    23    24   ar
    41    23    42    1
    42    24    25   ar
    43    24    43    1
    44    25    26   ar
    45    25    44    1
    46    26    27    1
    47    28    29    1
    48    28    45    1
    49    28    46    1
    50    29    47    1
    51    29    48    1
@<TRIPOS>SUBSTRUCTURE
     1 ZINC000506388363        1 TEMP              0 ****  ****    0 ROOT


##########                                Name:    ZINC000929592477
##########                DOCK_Rotatable_Bonds:                   7
##########                         Heavy_Atoms:                  28
##########                    Molecular_Weight:             399.517
##########                DOCK_Rotatable_Bonds:                   7
##########                       Formal_Charge:         -8.9407e-08
##########                     HBond_Acceptors:                   8
##########                        HBond_Donors:                   3
##########                         Heavy_Atoms:                  28
##########                          Grid_Score:          -32.169960
##########                     Grid_vdw_energy:          -32.382103
##########                      Grid_es_energy:            0.212142
##########           Internal_energy_repulsive:            7.949038

@<TRIPOS>MOLECULE
ZINC000929592477
 53 56 1 0 0
SMALL
USER_CHARGES


@<TRIPOS>ATOM
      1 O1         -3.4976    1.5894   50.8672 O.2     1  ZINC000929592477   -0.5700
      2 C2         -3.8564    1.9376   49.7588 C.2     1  ZINC000929592477    0.7100
      3 N3         -5.1461    2.2614   49.5388 N.am    1  ZINC000929592477   -0.6800
      4 C4         -6.0749    2.1915   50.5865 C.ar    1  ZINC000929592477    0.1600
      5 C5         -6.5438    0.9575   51.0172 C.ar    1  ZINC000929592477   -0.1300
      6 C6         -7.4589    0.8882   52.0485 C.ar    1  ZINC000929592477   -0.0800
      7 C7         -7.9104    2.0534   52.6558 C.ar    1  ZINC000929592477   -0.1000
      8 S8         -9.0778    1.9656   53.9726 S.3     1  ZINC000929592477   -0.1100
      9 C9        -10.1463    0.5851   53.4794 C.3     1  ZINC000929592477   -0.0800
     10 C10       -11.2633    0.3623   54.5289 C.3     1  ZINC000929592477   -0.1200
     11 C11       -12.3631   -0.3579   53.7100 C.3     1  ZINC000929592477   -0.1200
     12 C12       -12.3180    0.3292   52.3296 C.3     1  ZINC000929592477   -0.1200
     13 C13       -10.9084    0.9288   52.1829 C.3     1  ZINC000929592477   -0.1000
     14 C14        -7.4406    3.2879   52.2249 C.ar    1  ZINC000929592477   -0.1200
     15 C15        -6.5216    3.3559   51.1970 C.ar    1  ZINC000929592477   -0.1000
     16 N16        -2.9634    2.0049   48.7516 N.am    1  ZINC000929592477   -0.7300
     17 C17        -1.5616    1.6528   48.9907 C.3     1  ZINC000929592477    0.1500
     18 H18        -1.4649    1.0538   49.8961 H       1  ZINC000929592477    0.1200
     19 C19        -0.6828    2.9285   49.0801 C.3     1  ZINC000929592477   -0.1400
     20 C20        -0.4209    3.2311   47.5836 C.3     1  ZINC000929592477    0.1100
     21 N21        -0.2702    1.9079   46.9517 N.pl3   1  ZINC000929592477   -0.6000
     22 C22         0.4149    1.6484   45.7823 C.2     1  ZINC000929592477    0.4600
     23 C23         0.2775    0.4235   45.1508 C.2     1  ZINC000929592477   -0.4000
     24 C24         0.9908    0.2003   43.9650 C.2     1  ZINC000929592477    0.5300
     25 O25         0.8992   -0.8646   43.3750 O.2     1  ZINC000929592477   -0.5500
     26 N26         1.7806    1.1849   43.4878 N.am    1  ZINC000929592477   -0.6400
     27 C27         1.8766    2.3582   44.1445 C.2     1  ZINC000929592477    0.4100
     28 N28         1.2149    2.5835   45.2461 N.2     1  ZINC000929592477   -0.5700
     29 C29        -0.9713    0.9058   47.7761 C.3     1  ZINC000929592477    0.1100
     30 H30        -5.4315    2.5430   48.6555 H       1  ZINC000929592477    0.4100
     31 H31        -6.1929    0.0519   50.5450 H       1  ZINC000929592477    0.1300
     32 H32        -7.8241   -0.0716   52.3830 H       1  ZINC000929592477    0.1300
     33 H33        -9.5581   -0.3229   53.3468 H       1  ZINC000929592477    0.1000
     34 H34       -10.9089   -0.2719   55.3415 H       1  ZINC000929592477    0.0700
     35 H35       -11.6287    1.3150   54.9124 H       1  ZINC000929592477    0.0800
     36 H36       -12.1347   -1.4195   53.6154 H       1  ZINC000929592477    0.0700
     37 H37       -13.3389   -0.2166   54.1747 H       1  ZINC000929592477    0.0700
     38 H38       -12.4960   -0.4031   51.5420 H       1  ZINC000929592477    0.0700
     39 H39       -13.0668    1.1197   52.2813 H       1  ZINC000929592477    0.0700
     40 H40       -10.9733    2.0103   52.0635 H       1  ZINC000929592477    0.0700
     41 H41       -10.4025    0.4875   51.3243 H       1  ZINC000929592477    0.0800
     42 H42        -7.7912    4.1939   52.6968 H       1  ZINC000929592477    0.1300
     43 H43        -6.1560    4.3155   50.8622 H       1  ZINC000929592477    0.1400
     44 H44        -3.2489    2.2863   47.8683 H       1  ZINC000929592477    0.4000
     45 H45        -1.2269    3.7452   49.5546 H       1  ZINC000929592477    0.0900
     46 H46         0.2495    2.7245   49.6065 H       1  ZINC000929592477    0.0900
     47 H47        -1.2673    3.7642   47.1507 H       1  ZINC000929592477    0.0700
     48 H48         0.4937    3.8128   47.4687 H       1  ZINC000929592477    0.0800
     49 H49        -0.3639   -0.3417   45.5624 H       1  ZINC000929592477    0.1500
     50 H50         2.2818    1.0477   42.6687 H       1  ZINC000929592477    0.4200
     51 H51         2.5144    3.1334   43.7461 H       1  ZINC000929592477    0.2100
     52 H52        -0.2677    0.1444   48.1122 H       1  ZINC000929592477    0.0900
     53 H53        -1.7719    0.4445   47.1979 H       1  ZINC000929592477    0.0800
@<TRIPOS>BOND
     1     1     2    2
     2     2     3   am
     3     2    16   am
     4     3     4    1
     5     3    30    1
     6     4    15   ar
     7     4     5   ar
     8     5     6   ar
     9     5    31    1
    10     6     7   ar
    11     6    32    1
    12     7     8    1
    13     7    14   ar
    14     8     9    1
    15     9    13    1
    16     9    10    1
    17     9    33    1
    18    10    11    1
    19    10    34    1
    20    10    35    1
    21    11    12    1
    22    11    36    1
    23    11    37    1
    24    12    13    1
    25    12    38    1
    26    12    39    1
    27    13    40    1
    28    13    41    1
    29    14    15   ar
    30    14    42    1
    31    15    43    1
    32    16    17    1
    33    16    44    1
    34    17    18    1
    35    17    29    1
    36    17    19    1
    37    19    20    1
    38    19    45    1
    39    19    46    1
    40    20    21    1
    41    20    47    1
    42    20    48    1
    43    21    22    1
    44    21    29    1
    45    22    28    1
    46    22    23    2
    47    23    24    1
    48    23    49    1
    49    24    25    2
    50    24    26   am
    51    26    27    1
    52    26    50    1
    53    27    28    2
    54    27    51    1
    55    29    52    1
    56    29    53    1
@<TRIPOS>SUBSTRUCTURE
     1 ZINC000929592477        1 TEMP              0 ****  ****    0 ROOT


##########                                Name:    ZINC000022858610
##########                DOCK_Rotatable_Bonds:                   9
##########                         Heavy_Atoms:                  26
##########                    Molecular_Weight:             369.343
##########                DOCK_Rotatable_Bonds:                   9
##########                       Formal_Charge:          0.00999956
##########                     HBond_Acceptors:                   9
##########                        HBond_Donors:                   2
##########                         Heavy_Atoms:                  26
##########                          Grid_Score:          -32.104752
##########                     Grid_vdw_energy:          -31.643976
##########                      Grid_es_energy:           -0.460774
##########           Internal_energy_repulsive:           19.153666

@<TRIPOS>MOLECULE
ZINC000022858610
 44 45 1 0 0
SMALL
USER_CHARGES


@<TRIPOS>ATOM
      1 C1         -6.2109    3.2857   49.3083 C.3     1  <0>         0.0100
      2 N2         -5.7794    4.2886   50.2910 N.3     1  <0>        -0.5300
      3 C3         -6.7309    5.4060   50.3555 C.3     1  <0>         0.0200
      4 C4         -5.5904    3.6812   51.6150 C.3     1  <0>         0.1500
      5 H5         -6.0492    4.3145   52.3743 H       1  <0>         0.1200
      6 C6         -4.0943    3.5418   51.9033 C.3     1  <0>         0.1300
      7 N7         -3.4027    3.0967   50.6909 N.am    1  <0>        -0.6800
      8 C8         -2.0573    3.1429   50.6271 C.2     1  <0>         0.5100
      9 O9         -1.4185    3.5517   51.5745 O.2     1  <0>        -0.5100
     10 C10        -1.3524    2.6907   49.3905 C.2     1  <0>         0.5200
     11 O11        -0.2174    3.0595   49.1696 O.2     1  <0>        -0.4900
     12 N12        -1.9767    1.8730   48.5197 N.am    1  <0>        -0.6500
     13 C13        -1.3172    1.4500   47.3627 C.ar    1  <0>         0.1900
     14 C14        -1.3679    2.2236   46.2102 C.ar    1  <0>        -0.1200
     15 C15        -0.7149    1.8024   45.0684 C.ar    1  <0>        -0.0700
     16 C16        -0.0112    0.6121   45.0717 C.ar    1  <0>        -0.1300
     17 C17         0.0410   -0.1609   46.2175 C.ar    1  <0>        -0.0500
     18 C18        -0.6043    0.2572   47.3643 C.ar    1  <0>        -0.2100
     19 C19        -0.5469   -0.5857   48.6122 C.3     1  <0>         0.5100
     20 F20        -1.8363   -0.7344   49.1342 F       1  <0>        -0.1700
     21 F21        -0.0218   -1.8444   48.3010 F       1  <0>        -0.1800
     22 F22         0.2707    0.0394   49.5599 F       1  <0>        -0.1700
     23 C23        -6.2356    2.3195   51.6397 C.2     1  <0>        -0.0500
     24 C24        -7.5314    2.0676   51.8984 C.2     1  <0>        -0.1900
     25 C25        -7.7004    0.6663   51.8169 C.2     1  <0>        -0.2100
     26 C26        -6.4979    0.1457   51.5134 C.2     1  <0>        -0.0400
     27 O27        -5.6157    1.1522   51.4016 O.3     1  <0>        -0.1700
     28 H28        -6.1626    3.7137   48.3070 H       1  <0>         0.0700
     29 H29        -5.5552    2.4167   49.3640 H       1  <0>         0.0700
     30 H30        -7.2353    2.9823   49.5247 H       1  <0>         0.0500
     31 H31        -7.7123    5.0312   50.6465 H       1  <0>         0.0300
     32 H32        -6.3874    6.1339   51.0905 H       1  <0>         0.0700
     33 H33        -6.7993    5.8819   49.3772 H       1  <0>         0.0800
     34 H34        -3.6933    4.5057   52.2171 H       1  <0>         0.0900
     35 H35        -3.9437    2.8100   52.6969 H       1  <0>         0.0800
     36 H36        -3.9132    2.7687   49.9341 H       1  <0>         0.4200
     37 H37        -2.8838    1.5782   48.6962 H       1  <0>         0.4300
     38 H38        -1.9176    3.1532   46.2068 H       1  <0>         0.1500
     39 H39        -0.7542    2.4033   44.1718 H       1  <0>         0.1400
     40 H40         0.4986    0.2852   44.1775 H       1  <0>         0.1400
     41 H41         0.5909   -1.0904   46.2164 H       1  <0>         0.1500
     42 H42        -8.2958    2.7960   52.1254 H       1  <0>         0.1500
     43 H43        -8.6189    0.1189   51.9695 H       1  <0>         0.1500
     44 H44        -6.2797   -0.9034   51.3784 H       1  <0>         0.2000
@<TRIPOS>BOND
     1     1     2    1
     2     1    28    1
     3     1    29    1
     4     1    30    1
     5     2     3    1
     6     2     4    1
     7     3    31    1
     8     3    32    1
     9     3    33    1
    10     4     5    1
    11     4     6    1
    12     4    23    1
    13     6     7    1
    14     6    34    1
    15     6    35    1
    16     7     8   am
    17     7    36    1
    18     8     9    2
    19     8    10    1
    20    10    11    2
    21    10    12   am
    22    12    13    1
    23    12    37    1
    24    13    18   ar
    25    13    14   ar
    26    14    15   ar
    27    14    38    1
    28    15    16   ar
    29    15    39    1
    30    16    17   ar
    31    16    40    1
    32    17    18   ar
    33    17    41    1
    34    18    19    1
    35    19    20    1
    36    19    21    1
    37    19    22    1
    38    23    27    1
    39    23    24    2
    40    24    25    1
    41    24    42    1
    42    25    26    2
    43    25    43    1
    44    26    27    1
    45    26    44    1
@<TRIPOS>SUBSTRUCTURE
     1 <0>         1 TEMP              0 ****  ****    0 ROOT


##########                                Name:    ZINC000548281822
##########                DOCK_Rotatable_Bonds:                   6
##########                         Heavy_Atoms:                  24
##########                    Molecular_Weight:             332.406
##########                DOCK_Rotatable_Bonds:                   6
##########                       Formal_Charge:        -5.58794e-08
##########                     HBond_Acceptors:                   8
##########                        HBond_Donors:                   2
##########                         Heavy_Atoms:                  24
##########                          Grid_Score:          -32.096024
##########                     Grid_vdw_energy:          -31.419542
##########                      Grid_es_energy:           -0.676480
##########           Internal_energy_repulsive:            6.320803

@<TRIPOS>MOLECULE
ZINC000548281822
 48 50 1 0 0
SMALL
USER_CHARGES


@<TRIPOS>ATOM
      1 C1         -5.6086    2.4441   52.9671 C.3     1  ZINC000548281822   -0.1700
      2 C2         -6.1537    2.0297   51.5988 C.3     1  ZINC000548281822    0.2600
      3 H3         -6.4750    2.9162   51.0520 H       1  ZINC000548281822    0.1400
      4 N4         -5.1036    1.3432   50.8424 N.am    1  ZINC000548281822   -0.7400
      5 C5         -4.1890    2.0584   50.1579 C.2     1  ZINC000548281822    0.7100
      6 O6         -4.2364    3.2733   50.1668 O.2     1  ZINC000548281822   -0.5700
      7 N7         -3.2220    1.4269   49.4632 N.am    1  ZINC000548281822   -0.7400
      8 C8         -2.2269    2.2044   48.7206 C.3     1  ZINC000548281822    0.1600
      9 H9         -2.6965    3.0973   48.3080 H       1  ZINC000548281822    0.1000
     10 C10        -1.0904    2.6131   49.6624 C.3     1  ZINC000548281822   -0.1400
     11 C11        -0.1740    3.6161   48.9532 C.3     1  ZINC000548281822    0.1100
     12 N12         0.1952    3.0740   47.6435 N.pl3   1  ZINC000548281822   -0.4600
     13 C13         1.2214    3.4662   46.8366 C.2     1  ZINC000548281822   -0.0500
     14 C14         1.1717    2.6841   45.7391 C.2     1  ZINC000548281822   -0.0300
     15 N15         0.1387    1.8372   45.8775 N.2     1  ZINC000548281822   -0.4900
     16 C16        -0.4515    2.0642   47.0144 C.2     1  ZINC000548281822    0.2100
     17 C17        -1.6574    1.3514   47.5799 C.3     1  ZINC000548281822   -0.0500
     18 C18        -7.3266    1.1021   51.7852 C.2     1  ZINC000548281822    0.1700
     19 N19        -8.5425    1.4420   52.1394 N.2     1  ZINC000548281822   -0.4600
     20 C20        -9.2428    0.2944   52.1772 C.2     1  ZINC000548281822    0.1900
     21 C21       -10.7000    0.1500   52.5331 C.3     1  ZINC000548281822    0.0200
     22 C22       -10.8256   -0.4263   53.9448 C.3     1  ZINC000548281822   -0.1400
     23 C23       -11.3762    1.5215   52.4803 C.3     1  ZINC000548281822   -0.1400
     24 C24       -11.3778   -0.7915   51.5356 C.3     1  ZINC000548281822   -0.1400
     25 N25        -8.4321   -0.6671   51.8502 N.2     1  ZINC000548281822   -0.3700
     26 O26        -7.3277   -0.2235   51.6155 O.3     1  ZINC000548281822    0.0800
     27 H27        -5.2874    1.5576   53.5139 H       1  ZINC000548281822    0.0700
     28 H28        -4.7603    3.1151   52.8322 H       1  ZINC000548281822    0.0900
     29 H29        -6.3900    2.9549   53.5299 H       1  ZINC000548281822    0.0800
     30 H30        -5.0665    0.3739   50.8342 H       1  ZINC000548281822    0.4000
     31 H31        -3.1849    0.4576   49.4550 H       1  ZINC000548281822    0.4000
     32 H32        -1.5083    3.0730   50.5578 H       1  ZINC000548281822    0.1000
     33 H33        -0.5153    1.7304   49.9421 H       1  ZINC000548281822    0.0800
     34 H34        -0.6996    4.5619   48.8223 H       1  ZINC000548281822    0.0900
     35 H35         0.7248    3.7747   49.5494 H       1  ZINC000548281822    0.1000
     36 H36         1.9353    4.2514   47.0370 H       1  ZINC000548281822    0.1800
     37 H37         1.8447    2.7311   44.8958 H       1  ZINC000548281822    0.1700
     38 H38        -1.3609    0.3752   47.9639 H       1  ZINC000548281822    0.0900
     39 H39        -2.4101    1.2278   46.8013 H       1  ZINC000548281822    0.1000
     40 H40       -10.3427    0.2444   54.6555 H       1  ZINC000548281822    0.0600
     41 H41       -11.8796   -0.5308   54.2023 H       1  ZINC000548281822    0.0700
     42 H42       -10.3438   -1.4035   53.9825 H       1  ZINC000548281822    0.0700
     43 H43       -11.2868    1.9321   51.4746 H       1  ZINC000548281822    0.0600
     44 H44       -12.4302    1.4171   52.7377 H       1  ZINC000548281822    0.0700
     45 H45       -10.8934    2.1923   53.1909 H       1  ZINC000548281822    0.0600
     46 H46       -10.8961   -1.7686   51.5733 H       1  ZINC000548281822    0.0700
     47 H47       -12.4318   -0.8959   51.7931 H       1  ZINC000548281822    0.0700
     48 H48       -11.2884   -0.3809   50.5300 H       1  ZINC000548281822    0.0600
@<TRIPOS>BOND
     1     1     2    1
     2     1    27    1
     3     1    28    1
     4     1    29    1
     5     2     3    1
     6     2     4    1
     7     2    18    1
     8     4     5   am
     9     4    30    1
    10     5     6    2
    11     5     7   am
    12     7     8    1
    13     7    31    1
    14     8     9    1
    15     8    17    1
    16     8    10    1
    17    10    11    1
    18    10    32    1
    19    10    33    1
    20    11    12    1
    21    11    34    1
    22    11    35    1
    23    12    16    1
    24    12    13    1
    25    13    14    2
    26    13    36    1
    27    14    15    1
    28    14    37    1
    29    15    16    2
    30    16    17    1
    31    17    38    1
    32    17    39    1
    33    18    26    1
    34    18    19    2
    35    19    20    1
    36    20    21    1
    37    20    25    2
    38    21    22    1
    39    21    23    1
    40    21    24    1
    41    22    40    1
    42    22    41    1
    43    22    42    1
    44    23    43    1
    45    23    44    1
    46    23    45    1
    47    24    46    1
    48    24    47    1
    49    24    48    1
    50    25    26    1
@<TRIPOS>SUBSTRUCTURE
     1 ZINC000548281822        1 TEMP              0 ****  ****    0 ROOT


##########                                Name:    ZINC001015666108
##########                DOCK_Rotatable_Bonds:                   7
##########                         Heavy_Atoms:                  25
##########                    Molecular_Weight:             346.429
##########                DOCK_Rotatable_Bonds:                   7
##########                       Formal_Charge:          -0.0199997
##########                     HBond_Acceptors:                   7
##########                        HBond_Donors:                   1
##########                         Heavy_Atoms:                  25
##########                          Grid_Score:          -32.081501
##########                     Grid_vdw_energy:          -31.937387
##########                      Grid_es_energy:           -0.144113
##########           Internal_energy_repulsive:           14.642991

@<TRIPOS>MOLECULE
ZINC001015666108
 51 53 1 0 0
SMALL
USER_CHARGES


@<TRIPOS>ATOM
      1 C1         -0.0651    0.4087   45.3475 C.3     1  ZINC001015666108   -0.1400
      2 C2         -0.4407    1.1080   46.6556 C.3     1  ZINC001015666108   -0.0700
      3 C3         -0.8558    0.0782   47.6745 C.2     1  ZINC001015666108   -0.0700
      4 C4         -1.7207    0.2633   48.7147 C.2     1  ZINC001015666108   -0.0900
      5 C5         -2.4180    1.5108   49.0441 C.2     1  ZINC001015666108    0.6100
      6 O6         -2.2013    2.5181   48.3965 O.2     1  ZINC001015666108   -0.5100
      7 N7         -3.2987    1.5415   50.0638 N.am    1  ZINC001015666108   -0.7200
      8 C8         -3.9938    2.7881   50.3940 C.3     1  ZINC001015666108    0.1400
      9 H9         -3.3704    3.6462   50.1426 H       1  ZINC001015666108    0.1100
     10 C10        -5.3423    2.8658   49.6420 C.3     1  ZINC001015666108   -0.1300
     11 C11        -6.3577    2.3628   50.6985 C.3     1  ZINC001015666108    0.0300
     12 N12        -5.8369    2.9310   51.9681 N.3     1  ZINC001015666108   -0.5100
     13 C13        -6.3615    2.1973   53.1275 C.3     1  ZINC001015666108    0.1700
     14 H14        -5.8600    1.2326   53.2043 H       1  ZINC001015666108    0.0900
     15 C15        -6.1076    3.0067   54.4009 C.3     1  ZINC001015666108   -0.1500
     16 C16        -7.8431    1.9811   52.9569 C.2     1  ZINC001015666108    0.1900
     17 N17        -8.4841    0.8426   53.0676 N.2     1  ZINC001015666108   -0.4800
     18 C18        -9.7770    1.1307   52.8344 C.2     1  ZINC001015666108    0.1800
     19 C19       -10.9245    0.1541   52.8456 C.3     1  ZINC001015666108    0.0000
     20 C20       -12.2424    0.9137   52.6819 C.3     1  ZINC001015666108   -0.1500
     21 C21       -10.7610   -0.8381   51.6925 C.3     1  ZINC001015666108   -0.1500
     22 N22        -9.8548    2.4061   52.5982 N.2     1  ZINC001015666108   -0.3800
     23 O23        -8.7556    2.9143   52.6694 O.3     1  ZINC001015666108    0.1000
     24 C24        -4.3623    2.8148   51.8889 C.3     1  ZINC001015666108    0.0300
     25 O25        -1.8216   -0.9024   49.3863 O.3     1  ZINC001015666108   -0.1700
     26 C26        -1.0440   -1.8219   48.8002 C.2     1  ZINC001015666108    0.0000
     27 C27        -0.4328   -1.2589   47.7346 C.2     1  ZINC001015666108   -0.2200
     28 H28         0.2351    1.1535   44.6105 H       1  ZINC001015666108    0.0600
     29 H29         0.7617   -0.2784   45.5274 H       1  ZINC001015666108    0.0600
     30 H30        -0.9246   -0.1473   44.9730 H       1  ZINC001015666108    0.0500
     31 H31         0.4187    1.6639   47.0302 H       1  ZINC001015666108    0.0900
     32 H32        -1.2676    1.7950   46.4757 H       1  ZINC001015666108    0.0700
     33 H33        -3.4722    0.7383   50.5792 H       1  ZINC001015666108    0.4000
     34 H34        -5.5638    3.8932   49.3526 H       1  ZINC001015666108    0.0900
     35 H35        -5.3361    2.2113   48.7704 H       1  ZINC001015666108    0.0800
     36 H36        -7.3556    2.7464   50.4861 H       1  ZINC001015666108    0.0800
     37 H37        -6.3635    1.2736   50.7383 H       1  ZINC001015666108    0.0500
     38 H38        -6.6090    3.9715   54.3241 H       1  ZINC001015666108    0.0800
     39 H39        -6.4968    2.4624   55.2612 H       1  ZINC001015666108    0.0700
     40 H40        -5.0359    3.1631   54.5244 H       1  ZINC001015666108    0.0800
     41 H41       -10.9321   -0.3868   53.7920 H       1  ZINC001015666108    0.1000
     42 H42       -12.2349    1.4546   51.7357 H       1  ZINC001015666108    0.0600
     43 H43       -13.0724    0.2073   52.6900 H       1  ZINC001015666108    0.0700
     44 H44       -12.3589    1.6205   53.5034 H       1  ZINC001015666108    0.0600
     45 H45       -10.7534   -0.2973   50.7461 H       1  ZINC001015666108    0.0600
     46 H46        -9.8221   -1.3794   51.8092 H       1  ZINC001015666108    0.0600
     47 H47       -11.5911   -1.5446   51.7006 H       1  ZINC001015666108    0.0700
     48 H48        -4.0364    1.8916   52.3681 H       1  ZINC001015666108    0.0600
     49 H49        -3.8958    3.6725   52.3734 H       1  ZINC001015666108    0.1000
     50 H50        -0.9278   -2.8458   49.1235 H       1  ZINC001015666108    0.2100
     51 H51         0.2567   -1.7446   47.0599 H       1  ZINC001015666108    0.1600
@<TRIPOS>BOND
     1     1     2    1
     2     1    28    1
     3     1    29    1
     4     1    30    1
     5     2     3    1
     6     2    31    1
     7     2    32    1
     8     3    27    1
     9     3     4    2
    10     4     5    1
    11     4    25    1
    12     5     6    2
    13     5     7   am
    14     7     8    1
    15     7    33    1
    16     8     9    1
    17     8    24    1
    18     8    10    1
    19    10    11    1
    20    10    34    1
    21    10    35    1
    22    11    12    1
    23    11    36    1
    24    11    37    1
    25    12    13    1
    26    12    24    1
    27    13    14    1
    28    13    15    1
    29    13    16    1
    30    15    38    1
    31    15    39    1
    32    15    40    1
    33    16    23    1
    34    16    17    2
    35    17    18    1
    36    18    19    1
    37    18    22    2
    38    19    20    1
    39    19    21    1
    40    19    41    1
    41    20    42    1
    42    20    43    1
    43    20    44    1
    44    21    45    1
    45    21    46    1
    46    21    47    1
    47    22    23    1
    48    24    48    1
    49    24    49    1
    50    25    26    1
    51    26    27    2
    52    26    50    1
    53    27    51    1
@<TRIPOS>SUBSTRUCTURE
     1 ZINC001015666108        1 TEMP              0 ****  ****    0 ROOT


##########                                Name:    ZINC000375302598
##########                DOCK_Rotatable_Bonds:                   8
##########                         Heavy_Atoms:                  27
##########                    Molecular_Weight:             368.479
##########                DOCK_Rotatable_Bonds:                   8
##########                       Formal_Charge:               -0.02
##########                     HBond_Acceptors:                   6
##########                        HBond_Donors:                   1
##########                         Heavy_Atoms:                  27
##########                          Grid_Score:          -32.079472
##########                     Grid_vdw_energy:          -31.282429
##########                      Grid_es_energy:           -0.797042
##########           Internal_energy_repulsive:           10.035840

@<TRIPOS>MOLECULE
ZINC000375302598
 55 58 1 0 0
SMALL
USER_CHARGES


@<TRIPOS>ATOM
      1 C1         -0.4639    0.3613   48.4523 C.3     1  ZINC000375302598   -0.1500
      2 C2         -1.3452    1.4529   47.8417 C.3     1  ZINC000375302598   -0.0300
      3 C3         -2.5785    1.6348   48.6884 C.2     1  ZINC000375302598    0.1800
      4 N4         -3.4687    2.5911   48.5762 N.2     1  ZINC000375302598   -0.4700
      5 C5         -4.3822    2.3494   49.5334 C.2     1  ZINC000375302598    0.1800
      6 C6         -5.6139    3.1697   49.8183 C.3     1  ZINC000375302598    0.1500
      7 N7         -6.0447    2.9411   51.2041 N.3     1  ZINC000375302598   -0.5300
      8 C8         -6.0179    4.1898   51.9763 C.3     1  ZINC000375302598    0.0500
      9 C9         -6.3304    3.8900   53.4441 C.3     1  ZINC000375302598   -0.1100
     10 C10        -7.7113    3.2360   53.5436 C.3     1  ZINC000375302598   -0.1300
     11 C11        -7.7274    1.9637   52.6919 C.3     1  ZINC000375302598    0.1500
     12 H12        -6.9959    1.2557   53.0815 H       1  ZINC000375302598    0.1000
     13 N13        -9.0623    1.3621   52.7365 N.am    1  ZINC000375302598   -0.7300
     14 C14        -9.2272    0.0630   52.4175 C.2     1  ZINC000375302598    0.5200
     15 O15        -8.2704   -0.6075   52.0919 O.2     1  ZINC000375302598   -0.5300
     16 C16       -10.6001   -0.5563   52.4651 C.3     1  ZINC000375302598   -0.1100
     17 C17       -11.4641    0.0322   51.3480 C.3     1  ZINC000375302598   -0.1200
     18 H18       -11.2532   -0.3395   50.3452 H       1  ZINC000375302598    0.1200
     19 C19       -11.8945    1.4942   51.4836 C.3     1  ZINC000375302598   -0.1700
     20 C20       -12.9173    0.3731   51.6839 C.3     1  ZINC000375302598   -0.1100
     21 H21       -13.2579    0.1784   52.7009 H       1  ZINC000375302598    0.1100
     22 C22       -13.9479    0.1701   50.6034 C.ar    1  ZINC000375302598   -0.0500
     23 C23       -13.6193    0.4065   49.2815 C.ar    1  ZINC000375302598   -0.1200
     24 C24       -14.5647    0.2203   48.2904 C.ar    1  ZINC000375302598   -0.1200
     25 C25       -15.8385   -0.2027   48.6208 C.ar    1  ZINC000375302598   -0.1300
     26 C26       -16.1669   -0.4399   49.9425 C.ar    1  ZINC000375302598   -0.1200
     27 C27       -15.2203   -0.2578   50.9333 C.ar    1  ZINC000375302598   -0.1100
     28 C28        -7.3743    2.3192   51.2459 C.3     1  ZINC000375302598    0.0500
     29 N29        -4.0079    1.2784   50.1669 N.2     1  ZINC000375302598   -0.3800
     30 O30        -2.9771    0.8490   49.6933 O.3     1  ZINC000375302598    0.0800
     31 H31        -1.0198   -0.5755   48.4905 H       1  ZINC000375302598    0.0600
     32 H32         0.4282    0.2299   47.8400 H       1  ZINC000375302598    0.0800
     33 H33        -0.1722    0.6521   49.4616 H       1  ZINC000375302598    0.0600
     34 H34        -0.7893    2.3897   47.8037 H       1  ZINC000375302598    0.1100
     35 H35        -1.6369    1.1622   46.8325 H       1  ZINC000375302598    0.1000
     36 H36        -5.3871    4.2266   49.6780 H       1  ZINC000375302598    0.0700
     37 H37        -6.4119    2.8758   49.1365 H       1  ZINC000375302598    0.1100
     38 H38        -5.0291    4.6424   51.9006 H       1  ZINC000375302598    0.0800
     39 H39        -6.7638    4.8783   51.5795 H       1  ZINC000375302598    0.0400
     40 H40        -5.5769    3.2123   53.8456 H       1  ZINC000375302598    0.0700
     41 H41        -6.3257    4.8191   54.0143 H       1  ZINC000375302598    0.0700
     42 H42        -7.9197    2.9814   54.5829 H       1  ZINC000375302598    0.0700
     43 H43        -8.4695    3.9286   53.1783 H       1  ZINC000375302598    0.0600
     44 H44        -9.8277    1.8986   52.9958 H       1  ZINC000375302598    0.4000
     45 H45       -10.5171   -1.6348   52.3303 H       1  ZINC000375302598    0.1000
     46 H46       -11.0608   -0.3452   53.4302 H       1  ZINC000375302598    0.1000
     47 H47       -11.5621    2.0367   52.3685 H       1  ZINC000375302598    0.1000
     48 H48       -11.9672    2.0842   50.5699 H       1  ZINC000375302598    0.1000
     49 H49       -12.6240    0.7369   49.0234 H       1  ZINC000375302598    0.1200
     50 H50       -14.3081    0.4056   47.2578 H       1  ZINC000375302598    0.1200
     51 H51       -16.5773   -0.3475   47.8464 H       1  ZINC000375302598    0.1200
     52 H52       -17.1622   -0.7700   50.2007 H       1  ZINC000375302598    0.1200
     53 H53       -15.4769   -0.4431   51.9659 H       1  ZINC000375302598    0.1200
     54 H54        -8.1139    3.0165   50.8524 H       1  ZINC000375302598    0.0400
     55 H55        -7.3709    1.4134   50.6396 H       1  ZINC000375302598    0.0900
@<TRIPOS>BOND
     1     1     2    1
     2     1    31    1
     3     1    32    1
     4     1    33    1
     5     2     3    1
     6     2    34    1
     7     2    35    1
     8     3    30    1
     9     3     4    2
    10     4     5    1
    11     5     6    1
    12     5    29    2
    13     6     7    1
    14     6    36    1
    15     6    37    1
    16     7    28    1
    17     7     8    1
    18     8     9    1
    19     8    38    1
    20     8    39    1
    21     9    10    1
    22     9    40    1
    23     9    41    1
    24    10    11    1
    25    10    42    1
    26    10    43    1
    27    11    12    1
    28    11    13    1
    29    11    28    1
    30    13    14   am
    31    13    44    1
    32    14    15    2
    33    14    16    1
    34    16    17    1
    35    16    45    1
    36    16    46    1
    37    17    18    1
    38    17    20    1
    39    17    19    1
    40    19    20    1
    41    19    47    1
    42    19    48    1
    43    20    21    1
    44    20    22    1
    45    22    27   ar
    46    22    23   ar
    47    23    24   ar
    48    23    49    1
    49    24    25   ar
    50    24    50    1
    51    25    26   ar
    52    25    51    1
    53    26    27   ar
    54    26    52    1
    55    27    53    1
    56    28    54    1
    57    28    55    1
    58    29    30    1
@<TRIPOS>SUBSTRUCTURE
     1 ZINC000375302598        1 TEMP              0 ****  ****    0 ROOT


##########                                Name:    ZINC000654382142
##########                DOCK_Rotatable_Bonds:                  14
##########                         Heavy_Atoms:                  24
##########                    Molecular_Weight:             379.401
##########                DOCK_Rotatable_Bonds:                  14
##########                       Formal_Charge:          0.00999933
##########                     HBond_Acceptors:                  12
##########                        HBond_Donors:                   2
##########                         Heavy_Atoms:                  24
##########                          Grid_Score:          -32.049568
##########                     Grid_vdw_energy:          -30.087547
##########                      Grid_es_energy:           -1.962020
##########           Internal_energy_repulsive:           79.603745

@<TRIPOS>MOLECULE
ZINC000654382142
 48 47 1 0 0
SMALL
USER_CHARGES


@<TRIPOS>ATOM
      1 C1         -6.6008   -0.2278   51.6496 C.3     1  ZINC000654382142    0.0300
      2 O2         -7.0909    0.8577   52.4394 O.3     1  ZINC000654382142   -0.3700
      3 C3         -6.0640    1.6568   53.0300 C.3     1  ZINC000654382142    0.0400
      4 C4         -5.9891    3.0047   52.3099 C.3     1  ZINC000654382142    0.1400
      5 N5         -5.4548    2.8082   50.9600 N.am    1  ZINC000654382142   -0.6100
      6 C6         -6.3636    2.7634   49.8119 C.3     1  ZINC000654382142    0.0800
      7 C7         -6.5263    4.1712   49.2351 C.3     1  ZINC000654382142    0.0500
      8 H8         -7.5584    4.3162   48.9160 H       1  ZINC000654382142    0.1400
      9 O9         -5.6542    4.3304   48.1142 O.3     1  ZINC000654382142   -0.5200
     10 C10        -6.1736    5.2052   50.3064 C.3     1  ZINC000654382142    0.4200
     11 F11        -6.3211    6.4924   49.7787 F       1  ZINC000654382142   -0.1800
     12 F12        -7.0281    5.0501   51.4032 F       1  ZINC000654382142   -0.1700
     13 F13        -4.8493    5.0183   50.7168 F       1  ZINC000654382142   -0.1800
     14 C14        -4.1273    2.6686   50.7744 C.2     1  ZINC000654382142    0.7100
     15 O15        -3.3731    2.7042   51.7276 O.2     1  ZINC000654382142   -0.5600
     16 N16        -3.6356    2.4894   49.5324 N.am    1  ZINC000654382142   -0.7500
     17 C17        -2.1923    2.3394   49.3305 C.3     1  ZINC000654382142    0.1400
     18 C18        -1.8691    2.4734   47.8410 C.3     1  ZINC000654382142   -0.1600
     19 C19        -0.4783    1.8977   47.5672 C.3     1  ZINC000654382142    0.1200
     20 N20        -0.5786    0.8347   46.5641 N.am    1  ZINC000654382142   -1.0000
     21 C21        -0.8778    1.1694   45.1696 C.3     1  ZINC000654382142    0.0900
     22 S22        -0.3539   -0.7452   47.0065 S.o2    1  ZINC000654382142    2.6100
     23 C23         1.3340   -0.7938   47.6696 C.3     1  ZINC000654382142   -0.6800
     24 O24        -1.3029   -0.9574   48.0426 O.2     1  ZINC000654382142   -0.9500
     25 O25        -0.4303   -1.4658   45.7842 O.2     1  ZINC000654382142   -0.9500
     26 H26        -7.4415   -0.7853   51.2367 H       1  ZINC000654382142    0.0900
     27 H27        -5.9887    0.1621   50.8362 H       1  ZINC000654382142    0.0400
     28 H28        -5.9982   -0.8880   52.2735 H       1  ZINC000654382142    0.0400
     29 H29        -6.2912    1.8199   54.0835 H       1  ZINC000654382142    0.0500
     30 H30        -5.1069    1.1431   52.9400 H       1  ZINC000654382142    0.0600
     31 H31        -6.9870    3.4384   52.2461 H       1  ZINC000654382142    0.0900
     32 H32        -5.3354    3.6774   52.8651 H       1  ZINC000654382142    0.1000
     33 H33        -5.9522    2.1032   49.0484 H       1  ZINC000654382142    0.1000
     34 H34        -7.3354    2.3875   50.1321 H       1  ZINC000654382142    0.1000
     35 H35        -5.8169    3.7026   47.3970 H       1  ZINC000654382142    0.3900
     36 H36        -4.2373    2.4598   48.7722 H       1  ZINC000654382142    0.3900
     37 H37        -1.6651    3.1137   49.8879 H       1  ZINC000654382142    0.0700
     38 H38        -1.8761    1.3580   49.6842 H       1  ZINC000654382142    0.0700
     39 H39        -2.6099    1.9266   47.2579 H       1  ZINC000654382142    0.0700
     40 H40        -1.8887    3.5259   47.5583 H       1  ZINC000654382142    0.0800
     41 H41         0.1752    2.6871   47.1960 H       1  ZINC000654382142    0.0900
     42 H42        -0.0662    1.4888   48.4899 H       1  ZINC000654382142    0.1000
     43 H43         0.0532    1.3410   44.6293 H       1  ZINC000654382142    0.0600
     44 H44        -1.4202    0.3451   44.7064 H       1  ZINC000654382142    0.0700
     45 H45        -1.4891    2.0712   45.1355 H       1  ZINC000654382142    0.0700
     46 H46         1.4092   -0.1180   48.5215 H       1  ZINC000654382142    0.1300
     47 H47         1.5697   -1.8089   47.9892 H       1  ZINC000654382142    0.1300
     48 H48         2.0371   -0.4837   46.8966 H       1  ZINC000654382142    0.1300
@<TRIPOS>BOND
     1     1     2    1
     2     1    26    1
     3     1    27    1
     4     1    28    1
     5     2     3    1
     6     3     4    1
     7     3    29    1
     8     3    30    1
     9     4     5    1
    10     4    31    1
    11     4    32    1
    12     5     6    1
    13     5    14   am
    14     6     7    1
    15     6    33    1
    16     6    34    1
    17     7     8    1
    18     7     9    1
    19     7    10    1
    20     9    35    1
    21    10    11    1
    22    10    12    1
    23    10    13    1
    24    14    15    2
    25    14    16   am
    26    16    17    1
    27    16    36    1
    28    17    18    1
    29    17    37    1
    30    17    38    1
    31    18    19    1
    32    18    39    1
    33    18    40    1
    34    19    20    1
    35    19    41    1
    36    19    42    1
    37    20    21    1
    38    20    22   am
    39    21    43    1
    40    21    44    1
    41    21    45    1
    42    22    23    1
    43    22    24    2
    44    22    25    2
    45    23    46    1
    46    23    47    1
    47    23    48    1
@<TRIPOS>SUBSTRUCTURE
     1 ZINC000654382142        1 TEMP              0 ****  ****    0 ROOT


##########                                Name:    ZINC000460972051
##########                DOCK_Rotatable_Bonds:                  10
##########                         Heavy_Atoms:                  29
##########                    Molecular_Weight:             417.572
##########                DOCK_Rotatable_Bonds:                  10
##########                       Formal_Charge:         3.31551e-07
##########                     HBond_Acceptors:                   7
##########                        HBond_Donors:                   2
##########                         Heavy_Atoms:                  29
##########                          Grid_Score:          -32.029667
##########                     Grid_vdw_energy:          -30.194712
##########                      Grid_es_energy:           -1.834957
##########           Internal_energy_repulsive:           27.041138

@<TRIPOS>MOLECULE
ZINC000460972051
 60 61 1 0 0
SMALL
USER_CHARGES


@<TRIPOS>ATOM
      1 C1        -11.7591    2.2250   54.5721 C.3     1  ZINC000460972051   -0.1800
      2 C2        -12.1979    1.2313   53.4946 C.3     1  ZINC000460972051    0.1000
      3 N3        -11.4818   -0.0338   53.6762 N.am    1  ZINC000460972051   -0.6200
      4 C4        -11.8881   -0.9091   54.6170 C.2     1  ZINC000460972051    0.7100
      5 O5        -11.2946   -1.9597   54.7667 O.2     1  ZINC000460972051   -0.5800
      6 N6        -12.9522   -0.6198   55.3918 N.am    1  ZINC000460972051   -0.7400
      7 C7        -13.3929   -1.5705   56.4157 C.3     1  ZINC000460972051    0.2000
      8 H8        -13.2108   -2.5879   56.0692 H       1  ZINC000460972051    0.1100
      9 C9        -12.6134   -1.3249   57.7091 C.3     1  ZINC000460972051    0.1100
     10 N10       -13.1498   -2.1786   58.7721 N.am    1  ZINC000460972051   -1.1200
     11 S11       -13.4268   -1.5495   60.2786 S.o2    1  ZINC000460972051    2.7000
     12 O12       -14.2499   -0.4064   60.0910 O.2     1  ZINC000460972051   -0.9500
     13 O13       -13.7930   -2.6430   61.1090 O.2     1  ZINC000460972051   -0.9600
     14 C14       -11.8836   -0.9568   60.8883 C.ar    1  ZINC000460972051   -0.6900
     15 C15       -10.7032   -1.3722   60.3016 C.ar    1  ZINC000460972051   -0.0100
     16 C16        -9.4923   -0.9071   60.7800 C.ar    1  ZINC000460972051   -0.1500
     17 C17        -9.4622   -0.0264   61.8448 C.ar    1  ZINC000460972051   -0.0200
     18 C18        -8.1423    0.4802   62.3666 C.3     1  ZINC000460972051   -0.1300
     19 C19       -10.6431    0.3903   62.4309 C.ar    1  ZINC000460972051   -0.1500
     20 C20       -11.8538   -0.0718   61.9501 C.ar    1  ZINC000460972051    0.0300
     21 C21       -13.1409    0.3824   62.5889 C.3     1  ZINC000460972051   -0.1700
     22 C22       -14.8659   -1.3840   56.6738 C.ar    1  ZINC000460972051   -0.1000
     23 C23       -15.7093   -2.4792   56.6872 C.ar    1  ZINC000460972051   -0.1000
     24 C24       -17.0605   -2.3082   56.9240 C.ar    1  ZINC000460972051   -0.1200
     25 C25       -17.5682   -1.0420   57.1477 C.ar    1  ZINC000460972051   -0.1200
     26 C26       -16.7246    0.0530   57.1351 C.ar    1  ZINC000460972051   -0.1200
     27 C27       -15.3727   -0.1185   56.9026 C.ar    1  ZINC000460972051   -0.1000
     28 C28       -10.3239   -0.3473   52.8352 C.3     1  ZINC000460972051    0.1500
     29 C29       -10.8046   -0.8524   51.4733 C.3     1  ZINC000460972051   -0.1600
     30 C30        -9.4775    0.9125   52.6422 C.3     1  ZINC000460972051   -0.1600
     31 H31       -12.2919    3.1662   54.4370 H       1  ZINC000460972051    0.0700
     32 H32       -11.9865    1.8168   55.5569 H       1  ZINC000460972051    0.0600
     33 H33       -10.6863    2.3996   54.4901 H       1  ZINC000460972051    0.0700
     34 H34       -13.2707    1.0566   53.5766 H       1  ZINC000460972051    0.0700
     35 H35       -11.9705    1.6394   52.5097 H       1  ZINC000460972051    0.0900
     36 H36       -13.4264    0.2178   55.2715 H       1  ZINC000460972051    0.4000
     37 H37       -11.5613   -1.5611   57.5496 H       1  ZINC000460972051    0.0900
     38 H38       -12.7112   -0.2788   57.9991 H       1  ZINC000460972051    0.0900
     39 H39       -13.3427   -3.1123   58.5933 H       1  ZINC000460972051    0.4200
     40 H40       -10.7267   -2.0604   59.4696 H       1  ZINC000460972051    0.1400
     41 H41        -8.5699   -1.2323   60.3220 H       1  ZINC000460972051    0.1300
     42 H42        -7.8696    1.3940   61.8388 H       1  ZINC000460972051    0.0800
     43 H43        -8.2291    0.6885   63.4330 H       1  ZINC000460972051    0.0700
     44 H44        -7.3737   -0.2757   62.2055 H       1  ZINC000460972051    0.0700
     45 H45       -10.6196    1.0787   63.2626 H       1  ZINC000460972051    0.1300
     46 H46       -13.5513    1.2193   62.0240 H       1  ZINC000460972051    0.0900
     47 H47       -13.8559   -0.4404   62.5904 H       1  ZINC000460972051    0.1000
     48 H48       -12.9465    0.6967   63.6144 H       1  ZINC000460972051    0.0900
     49 H49       -15.3127   -3.4684   56.5125 H       1  ZINC000460972051    0.1200
     50 H50       -17.7195   -3.1637   56.9337 H       1  ZINC000460972051    0.1200
     51 H51       -18.6239   -0.9083   57.3319 H       1  ZINC000460972051    0.1200
     52 H52       -17.1212    1.0423   57.3095 H       1  ZINC000460972051    0.1200
     53 H53       -14.7137    0.7371   56.8928 H       1  ZINC000460972051    0.1200
     54 H54        -9.7230   -1.1185   53.3172 H       1  ZINC000460972051    0.1000
     55 H55       -11.4077   -1.7499   51.6106 H       1  ZINC000460972051    0.0600
     56 H56       -11.4056   -0.0813   50.9913 H       1  ZINC000460972051    0.0600
     57 H57        -9.9432   -1.0856   50.8475 H       1  ZINC000460972051    0.0700
     58 H58        -9.1351    1.2723   53.6124 H       1  ZINC000460972051    0.0600
     59 H59        -8.6161    0.6792   52.0165 H       1  ZINC000460972051    0.0700
     60 H60       -10.0785    1.6836   52.1601 H       1  ZINC000460972051    0.0600
@<TRIPOS>BOND
     1     1     2    1
     2     1    31    1
     3     1    32    1
     4     1    33    1
     5     2     3    1
     6     2    34    1
     7     2    35    1
     8     3     4   am
     9     3    28    1
    10     4     5    2
    11     4     6   am
    12     6     7    1
    13     6    36    1
    14     7     8    1
    15     7     9    1
    16     7    22    1
    17     9    10    1
    18     9    37    1
    19     9    38    1
    20    10    11   am
    21    10    39    1
    22    11    12    2
    23    11    13    2
    24    11    14    1
    25    14    20   ar
    26    14    15   ar
    27    15    16   ar
    28    15    40    1
    29    16    17   ar
    30    16    41    1
    31    17    18    1
    32    17    19   ar
    33    18    42    1
    34    18    43    1
    35    18    44    1
    36    19    20   ar
    37    19    45    1
    38    20    21    1
    39    21    46    1
    40    21    47    1
    41    21    48    1
    42    22    27   ar
    43    22    23   ar
    44    23    24   ar
    45    23    49    1
    46    24    25   ar
    47    24    50    1
    48    25    26   ar
    49    25    51    1
    50    26    27   ar
    51    26    52    1
    52    27    53    1
    53    28    29    1
    54    28    30    1
    55    28    54    1
    56    29    55    1
    57    29    56    1
    58    29    57    1
    59    30    58    1
    60    30    59    1
    61    30    60    1
@<TRIPOS>SUBSTRUCTURE
     1 ZINC000460972051        1 TEMP              0 ****  ****    0 ROOT


##########                                Name:    ZINC000509132103
##########                DOCK_Rotatable_Bonds:                   7
##########                         Heavy_Atoms:                  29
##########                    Molecular_Weight:              405.52
##########                DOCK_Rotatable_Bonds:                   7
##########                       Formal_Charge:          -0.0499998
##########                     HBond_Acceptors:                   6
##########                        HBond_Donors:                   0
##########                         Heavy_Atoms:                  29
##########                          Grid_Score:          -32.023769
##########                     Grid_vdw_energy:          -31.329454
##########                      Grid_es_energy:           -0.694316
##########           Internal_energy_repulsive:           19.194099

@<TRIPOS>MOLECULE
ZINC000509132103
 52 55 1 0 0
SMALL
USER_CHARGES


@<TRIPOS>ATOM
      1 C1         -5.3028    1.6589   52.3889 C.3     1  ZINC000509132103    0.0300
      2 O2         -6.0080    0.4479   52.1090 O.3     1  ZINC000509132103   -0.3000
      3 C3         -7.3604    0.5265   52.0313 C.ar    1  ZINC000509132103    0.2700
      4 C4         -8.0011    1.7490   52.2142 C.ar    1  ZINC000509132103   -0.1300
      5 C5         -9.3848    1.7767   52.1250 C.ar    1  ZINC000509132103   -0.0700
      6 C6        -10.0448    0.5859   51.8594 C.ar    1  ZINC000509132103    0.0500
      7 C7        -11.5478    0.5647   51.7524 C.3     1  ZINC000509132103   -0.0500
      8 S8        -12.2540    1.7613   52.9187 S.3     1  ZINC000509132103   -0.1500
      9 C9        -11.7323    1.1158   54.5316 C.3     1  ZINC000509132103   -0.1300
     10 C10       -12.4864   -0.1539   54.8323 C.2     1  ZINC000509132103    0.5400
     11 O11       -13.4194   -0.4854   54.1320 O.2     1  ZINC000509132103   -0.5100
     12 N12       -12.1238   -0.9211   55.8794 N.am    1  ZINC000509132103   -0.6100
     13 C13       -12.8371   -2.1624   56.1987 C.3     1  ZINC000509132103    0.1500
     14 C14       -13.0847   -2.2381   57.6844 C.ar    1  ZINC000509132103   -0.1000
     15 C15       -13.9550   -3.2153   58.1469 C.ar    1  ZINC000509132103   -0.1100
     16 C16       -14.2138   -3.3409   59.4966 C.ar    1  ZINC000509132103   -0.1200
     17 C17       -13.6001   -2.4877   60.3943 C.ar    1  ZINC000509132103   -0.1200
     18 C18       -12.7379   -1.5134   59.9354 C.ar    1  ZINC000509132103   -0.1100
     19 C19       -12.4802   -1.3807   58.5767 C.ar    1  ZINC000509132103   -0.0600
     20 C20       -11.5493   -0.2775   58.1470 C.3     1  ZINC000509132103   -0.0200
     21 H21       -12.0920    0.6677   58.1419 H       1  ZINC000509132103    0.1000
     22 C22       -10.4047   -0.1866   59.1229 C.ar    1  ZINC000509132103   -0.0800
     23 C23        -9.6261   -1.2993   59.3806 C.ar    1  ZINC000509132103   -0.1100
     24 C24        -8.5760   -1.2159   60.2758 C.ar    1  ZINC000509132103   -0.1200
     25 C25        -8.3044   -0.0197   60.9131 C.ar    1  ZINC000509132103   -0.1200
     26 C26        -9.0826    1.0932   60.6547 C.ar    1  ZINC000509132103   -0.1200
     27 C27       -10.1299    1.0110   59.7563 C.ar    1  ZINC000509132103   -0.1100
     28 C28       -10.9920   -0.5499   56.7449 C.3     1  ZINC000509132103    0.1200
     29 N29        -9.3566   -0.5273   51.7000 N.ar    1  ZINC000509132103   -0.1900
     30 N30        -8.0756   -0.5576   51.7760 N.ar    1  ZINC000509132103   -0.3000
     31 H31        -5.6288    2.0552   53.3505 H       1  ZINC000509132103    0.0600
     32 H32        -4.2323    1.4563   52.4236 H       1  ZINC000509132103    0.1000
     33 H33        -5.5093    2.3888   51.6062 H       1  ZINC000509132103    0.0600
     34 H34        -7.4382    2.6476   52.4194 H       1  ZINC000509132103    0.1600
     35 H35        -9.9323    2.6980   52.2587 H       1  ZINC000509132103    0.1600
     36 H36       -11.8436    0.8289   50.7372 H       1  ZINC000509132103    0.1100
     37 H37       -11.9149   -0.4339   51.9896 H       1  ZINC000509132103    0.1000
     38 H38       -10.6628    0.9069   54.5107 H       1  ZINC000509132103    0.1100
     39 H39       -11.9430    1.8552   55.3043 H       1  ZINC000509132103    0.1100
     40 H40       -13.7907   -2.1788   55.6708 H       1  ZINC000509132103    0.1000
     41 H41       -12.2361   -3.0166   55.8871 H       1  ZINC000509132103    0.0900
     42 H42       -14.4337   -3.8822   57.4451 H       1  ZINC000509132103    0.1200
     43 H43       -14.8927   -4.1028   59.8500 H       1  ZINC000509132103    0.1300
     44 H44       -13.7954   -2.5831   61.4522 H       1  ZINC000509132103    0.1200
     45 H45       -12.2593   -0.8479   60.6385 H       1  ZINC000509132103    0.1200
     46 H46        -9.8382   -2.2340   58.8827 H       1  ZINC000509132103    0.1200
     47 H47        -7.9681   -2.0855   60.4777 H       1  ZINC000509132103    0.1200
     48 H48        -7.4846    0.0453   61.6131 H       1  ZINC000509132103    0.1200
     49 H49        -8.8706    2.0278   61.1529 H       1  ZINC000509132103    0.1200
     50 H50       -10.7379    1.8805   59.5545 H       1  ZINC000509132103    0.1200
     51 H51       -10.2703   -1.3657   56.7870 H       1  ZINC000509132103    0.0800
     52 H52       -10.5116    0.3487   56.3580 H       1  ZINC000509132103    0.1000
@<TRIPOS>BOND
     1     1     2    1
     2     1    31    1
     3     1    32    1
     4     1    33    1
     5     2     3    1
     6     3    30   ar
     7     3     4   ar
     8     4     5   ar
     9     4    34    1
    10     5     6   ar
    11     5    35    1
    12     6     7    1
    13     6    29   ar
    14     7     8    1
    15     7    36    1
    16     7    37    1
    17     8     9    1
    18     9    10    1
    19     9    38    1
    20     9    39    1
    21    10    11    2
    22    10    12   am
    23    12    28    1
    24    12    13    1
    25    13    14    1
    26    13    40    1
    27    13    41    1
    28    14    19   ar
    29    14    15   ar
    30    15    16   ar
    31    15    42    1
    32    16    17   ar
    33    16    43    1
    34    17    18   ar
    35    17    44    1
    36    18    19   ar
    37    18    45    1
    38    19    20    1
    39    20    21    1
    40    20    22    1
    41    20    28    1
    42    22    27   ar
    43    22    23   ar
    44    23    24   ar
    45    23    46    1
    46    24    25   ar
    47    24    47    1
    48    25    26   ar
    49    25    48    1
    50    26    27   ar
    51    26    49    1
    52    27    50    1
    53    28    51    1
    54    28    52    1
    55    29    30   ar
@<TRIPOS>SUBSTRUCTURE
     1 ZINC000509132103        1 TEMP              0 ****  ****    0 ROOT


##########                                Name:    ZINC001023148918
##########                DOCK_Rotatable_Bonds:                   6
##########                         Heavy_Atoms:                  25
##########                    Molecular_Weight:             348.402
##########                DOCK_Rotatable_Bonds:                   6
##########                       Formal_Charge:           0.0199999
##########                     HBond_Acceptors:                   8
##########                        HBond_Donors:                   2
##########                         Heavy_Atoms:                  25
##########                          Grid_Score:          -32.015266
##########                     Grid_vdw_energy:          -31.374636
##########                      Grid_es_energy:           -0.640632
##########           Internal_energy_repulsive:           16.122543

@<TRIPOS>MOLECULE
ZINC001023148918
 49 52 1 0 0
SMALL
USER_CHARGES


@<TRIPOS>ATOM
      1 C1        -11.5896   -0.3167   52.5163 C.3     1  ZINC001023148918   -0.0700
      2 C2        -10.1459   -0.0186   52.2034 C.2     1  ZINC001023148918    0.0200
      3 N3         -9.1845   -0.8991   52.0902 N.2     1  ZINC001023148918   -0.2700
      4 N4         -8.0675   -0.3264   51.8178 N.pl3   1  ZINC001023148918   -0.2500
      5 C5         -6.7898   -1.0166   51.6250 C.3     1  ZINC001023148918    0.0800
      6 C6         -8.2529    1.0244   51.7353 C.2     1  ZINC001023148918   -0.0400
      7 C7         -7.2293    2.0401   51.4417 C.2     1  ZINC001023148918    0.6000
      8 O8         -7.4697    3.2177   51.6289 O.2     1  ZINC001023148918   -0.5300
      9 N9         -6.0254    1.6656   50.9654 N.am    1  ZINC001023148918   -0.7000
     10 C10        -5.0065    2.6768   50.6731 C.3     1  ZINC001023148918    0.1500
     11 H11        -5.4408    3.5242   50.1428 H       1  ZINC001023148918    0.1200
     12 C12        -3.8301    2.0645   49.8725 C.3     1  ZINC001023148918    0.1000
     13 N13        -2.6773    2.9334   50.1716 N.am    1  ZINC001023148918   -0.6200
     14 C14        -1.5891    3.0907   49.3921 C.2     1  ZINC001023148918    0.5400
     15 O15        -0.6976    3.8364   49.7386 O.2     1  ZINC001023148918   -0.5200
     16 C16        -1.4802    2.3400   48.0900 C.3     1  ZINC001023148918   -0.1400
     17 H17        -2.3999    2.4354   47.5128 H       1  ZINC001023148918    0.1100
     18 C18        -1.1428    0.8484   48.3427 C.3     1  ZINC001023148918   -0.1400
     19 C19         0.2340    0.6811   47.6325 C.3     1  ZINC001023148918    0.0600
     20 H20         0.8394   -0.1569   47.9781 H       1  ZINC001023148918    0.1300
     21 C21        -0.0853    0.6905   46.1074 C.3     1  ZINC001023148918   -0.1500
     22 C22        -0.4316    2.1773   45.8386 C.3     1  ZINC001023148918   -0.1500
     23 C23        -0.2564    2.8401   47.2652 C.3     1  ZINC001023148918    0.0900
     24 H24        -0.0842    3.9164   47.2624 H       1  ZINC001023148918    0.1400
     25 O25         0.8194    2.0104   47.8274 O.3     1  ZINC001023148918   -0.3600
     26 C26        -2.9117    3.6004   51.4607 C.3     1  ZINC001023148918    0.0700
     27 C27        -4.2935    3.1393   51.9713 C.3     1  ZINC001023148918    0.0900
     28 H28        -4.1892    2.3091   52.6699 H       1  ZINC001023148918    0.0800
     29 O29        -4.9956    4.2248   52.5802 O.3     1  ZINC001023148918   -0.5500
     30 C30        -9.5976    1.2458   51.9766 C.2     1  ZINC001023148918   -0.1800
     31 H31       -12.1359   -0.4826   51.5879 H       1  ZINC001023148918    0.0800
     32 H32       -11.6497   -1.2101   53.1379 H       1  ZINC001023148918    0.0700
     33 H33       -12.0274    0.5272   53.0497 H       1  ZINC001023148918    0.0800
     34 H34        -6.7034   -1.3379   50.5870 H       1  ZINC001023148918    0.0900
     35 H35        -5.9707   -0.3385   51.8647 H       1  ZINC001023148918    0.1100
     36 H36        -6.7444   -1.8868   52.2797 H       1  ZINC001023148918    0.0900
     37 H37        -5.8337    0.7266   50.8161 H       1  ZINC001023148918    0.4100
     38 H38        -3.6338    1.0456   50.2060 H       1  ZINC001023148918    0.0800
     39 H39        -4.0495    2.0795   48.8048 H       1  ZINC001023148918    0.0900
     40 H40        -1.0534    0.6482   49.4103 H       1  ZINC001023148918    0.0800
     41 H41        -1.8927    0.2006   47.8886 H       1  ZINC001023148918    0.0900
     42 H42         0.7868    0.3864   45.5285 H       1  ZINC001023148918    0.0800
     43 H43        -0.9389    0.0493   45.8876 H       1  ZINC001023148918    0.0800
     44 H44         0.2678    2.6139   45.1256 H       1  ZINC001023148918    0.0800
     45 H45        -1.4578    2.2768   45.4849 H       1  ZINC001023148918    0.0800
     46 H46        -2.1381    3.3130   52.1729 H       1  ZINC001023148918    0.0800
     47 H47        -2.9096    4.6818   51.3243 H       1  ZINC001023148918    0.0900
     48 H48        -4.4705    4.7220   53.2222 H       1  ZINC001023148918    0.3900
     49 H49       -10.1124    2.1951   51.9927 H       1  ZINC001023148918    0.1600
@<TRIPOS>BOND
     1     1     2    1
     2     1    31    1
     3     1    32    1
     4     1    33    1
     5     2    30    1
     6     2     3    2
     7     3     4    1
     8     4     5    1
     9     4     6    1
    10     5    34    1
    11     5    35    1
    12     5    36    1
    13     6     7    1
    14     6    30    2
    15     7     8    2
    16     7     9   am
    17     9    10    1
    18     9    37    1
    19    10    11    1
    20    10    27    1
    21    10    12    1
    22    12    13    1
    23    12    38    1
    24    12    39    1
    25    13    14   am
    26    13    26    1
    27    14    15    2
    28    14    16    1
    29    16    17    1
    30    16    23    1
    31    16    18    1
    32    18    19    1
    33    18    40    1
    34    18    41    1
    35    19    20    1
    36    19    25    1
    37    19    21    1
    38    21    22    1
    39    21    42    1
    40    21    43    1
    41    22    23    1
    42    22    44    1
    43    22    45    1
    44    23    24    1
    45    23    25    1
    46    26    27    1
    47    26    46    1
    48    26    47    1
    49    27    28    1
    50    27    29    1
    51    29    48    1
    52    30    49    1
@<TRIPOS>SUBSTRUCTURE
     1 ZINC001023148918        1 TEMP              0 ****  ****    0 ROOT


##########                                Name:    ZINC000543625960
##########                DOCK_Rotatable_Bonds:                   8
##########                         Heavy_Atoms:                  29
##########                    Molecular_Weight:             416.544
##########                DOCK_Rotatable_Bonds:                   8
##########                       Formal_Charge:           -0.010001
##########                     HBond_Acceptors:                   8
##########                        HBond_Donors:                   2
##########                         Heavy_Atoms:                  29
##########                          Grid_Score:          -32.001873
##########                     Grid_vdw_energy:          -30.664896
##########                      Grid_es_energy:           -1.336978
##########           Internal_energy_repulsive:           14.474305

@<TRIPOS>MOLECULE
ZINC000543625960
 57 59 1 0 0
SMALL
USER_CHARGES


@<TRIPOS>ATOM
      1 C1         -8.5888    1.7778   61.9422 C.3     1  ZINC000543625960   -0.1500
      2 C2         -8.3201    0.2888   61.7154 C.3     1  ZINC000543625960   -0.1300
      3 C3         -9.0298   -0.1690   60.4396 C.3     1  ZINC000543625960    0.1500
      4 H4         -9.0202   -1.2578   60.3892 H       1  ZINC000543625960    0.0800
      5 C5         -8.3062    0.4045   59.2196 C.3     1  ZINC000543625960   -0.1700
      6 N6        -10.4153    0.3069   60.4539 N.am    1  ZINC000543625960   -1.1100
      7 S7        -11.6644   -0.7794   60.4128 S.o2    1  ZINC000543625960    2.7000
      8 O8        -11.4374   -1.6923   61.4778 O.2     1  ZINC000543625960   -0.9600
      9 O9        -12.8560   -0.0160   60.2842 O.2     1  ZINC000543625960   -0.9500
     10 C10       -11.5026   -1.7041   58.9217 C.ar    1  ZINC000543625960   -0.6600
     11 C11       -10.9473   -2.9700   58.9510 C.ar    1  ZINC000543625960   -0.0400
     12 C12       -10.8184   -3.6990   57.7829 C.ar    1  ZINC000543625960   -0.1200
     13 C13       -11.2443   -3.1643   56.5830 C.ar    1  ZINC000543625960   -0.0600
     14 C14       -11.8029   -1.8931   56.5503 C.ar    1  ZINC000543625960    0.1500
     15 N15       -12.2355   -1.3484   55.3359 N.am    1  ZINC000543625960   -0.6800
     16 C16       -11.5145   -0.3801   54.7369 C.2     1  ZINC000543625960    0.7200
     17 O17       -10.4881    0.0202   55.2514 O.2     1  ZINC000543625960   -0.5600
     18 N18       -11.9310    0.1446   53.5674 N.am    1  ZINC000543625960   -0.6300
     19 C19       -13.1505   -0.2456   52.8366 C.3     1  ZINC000543625960    0.0900
     20 C20       -13.5065    0.9892   51.9715 C.3     1  ZINC000543625960   -0.1000
     21 H21       -14.0891    0.6988   51.0972 H       1  ZINC000543625960    0.1000
     22 C22       -14.2494    2.0415   52.7971 C.3     1  ZINC000543625960   -0.1500
     23 C23       -12.0995    1.4966   51.5588 C.3     1  ZINC000543625960   -0.1200
     24 C24       -11.2479    1.2052   52.8124 C.3     1  ZINC000543625960    0.2000
     25 H25       -11.1645    2.1055   53.4212 H       1  ZINC000543625960    0.0900
     26 C26        -9.8762    0.7352   52.4023 C.ar    1  ZINC000543625960   -0.1400
     27 C27        -8.7955    1.6024   52.4434 C.ar    1  ZINC000543625960   -0.0600
     28 C28        -7.5518    1.1260   52.0573 C.ar    1  ZINC000543625960   -0.1700
     29 C29        -7.4316   -0.1881   51.6472 C.ar    1  ZINC000543625960    0.1000
     30 N30        -8.4821   -0.9852   51.6207 N.ar    1  ZINC000543625960   -0.4800
     31 C31        -9.6785   -0.5680   51.9857 C.ar    1  ZINC000543625960    0.1200
     32 C32       -11.9357   -1.1659   57.7255 C.ar    1  ZINC000543625960   -0.0500
     33 H33        -8.0832    2.1039   62.8512 H       1  ZINC000543625960    0.0600
     34 H34        -8.2132    2.3484   61.0928 H       1  ZINC000543625960    0.0600
     35 H35        -9.6615    1.9420   62.0444 H       1  ZINC000543625960    0.0500
     36 H36        -7.2473    0.1246   61.6133 H       1  ZINC000543625960    0.0700
     37 H37        -8.6957   -0.2818   62.5648 H       1  ZINC000543625960    0.0800
     38 H38        -7.2753    0.0503   59.2090 H       1  ZINC000543625960    0.0700
     39 H39        -8.8118    0.0783   58.3108 H       1  ZINC000543625960    0.0700
     40 H40        -8.3158    1.4933   59.2700 H       1  ZINC000543625960    0.0600
     41 H41       -10.6009    1.2585   60.4873 H       1  ZINC000543625960    0.4200
     42 H42       -10.6131   -3.3903   59.8881 H       1  ZINC000543625960    0.1400
     43 H43       -10.3840   -4.6874   57.8090 H       1  ZINC000543625960    0.1400
     44 H44       -11.1429   -3.7338   55.6710 H       1  ZINC000543625960    0.1400
     45 H45       -13.0542   -1.6677   54.9254 H       1  ZINC000543625960    0.4100
     46 H46       -12.9523   -1.1092   52.2017 H       1  ZINC000543625960    0.0700
     47 H47       -13.9578   -0.4646   53.5354 H       1  ZINC000543625960    0.0800
     48 H48       -13.6293    2.3462   53.6401 H       1  ZINC000543625960    0.0600
     49 H49       -14.4645    2.9082   52.1721 H       1  ZINC000543625960    0.0600
     50 H50       -15.1839    1.6196   53.1672 H       1  ZINC000543625960    0.0600
     51 H51       -11.7268    0.9420   50.6976 H       1  ZINC000543625960    0.0800
     52 H52       -12.1211    2.5662   51.3502 H       1  ZINC000543625960    0.0900
     53 H53        -8.9194    2.6250   52.7681 H       1  ZINC000543625960    0.1300
     54 H54        -6.6879    1.7739   52.0764 H       1  ZINC000543625960    0.1400
     55 H55        -6.4665   -0.5667   51.3446 H       1  ZINC000543625960    0.1600
     56 H56       -10.5152   -1.2499   51.9507 H       1  ZINC000543625960    0.1400
     57 H57       -12.3697   -0.1771   57.7034 H       1  ZINC000543625960    0.1400
@<TRIPOS>BOND
     1     1     2    1
     2     1    33    1
     3     1    34    1
     4     1    35    1
     5     2     3    1
     6     2    36    1
     7     2    37    1
     8     3     4    1
     9     3     5    1
    10     3     6    1
    11     5    38    1
    12     5    39    1
    13     5    40    1
    14     6     7   am
    15     6    41    1
    16     7     8    2
    17     7     9    2
    18     7    10    1
    19    10    32   ar
    20    10    11   ar
    21    11    12   ar
    22    11    42    1
    23    12    13   ar
    24    12    43    1
    25    13    14   ar
    26    13    44    1
    27    14    15    1
    28    14    32   ar
    29    15    16   am
    30    15    45    1
    31    16    17    2
    32    16    18   am
    33    18    24    1
    34    18    19    1
    35    19    20    1
    36    19    46    1
    37    19    47    1
    38    20    21    1
    39    20    22    1
    40    20    23    1
    41    22    48    1
    42    22    49    1
    43    22    50    1
    44    23    24    1
    45    23    51    1
    46    23    52    1
    47    24    25    1
    48    24    26    1
    49    26    31   ar
    50    26    27   ar
    51    27    28   ar
    52    27    53    1
    53    28    29   ar
    54    28    54    1
    55    29    30   ar
    56    29    55    1
    57    30    31   ar
    58    31    56    1
    59    32    57    1
@<TRIPOS>SUBSTRUCTURE
     1 ZINC000543625960        1 TEMP              0 ****  ****    0 ROOT


##########                                Name:    ZINC000444811358
##########                DOCK_Rotatable_Bonds:                  11
##########                         Heavy_Atoms:                  27
##########                    Molecular_Weight:             374.455
##########                DOCK_Rotatable_Bonds:                  11
##########                       Formal_Charge:          0.00999966
##########                     HBond_Acceptors:                   6
##########                        HBond_Donors:                   2
##########                         Heavy_Atoms:                  27
##########                          Grid_Score:          -31.969460
##########                     Grid_vdw_energy:          -30.871155
##########                      Grid_es_energy:           -1.098305
##########           Internal_energy_repulsive:           28.064707

@<TRIPOS>MOLECULE
ZINC000444811358
 54 55 1 0 0
SMALL
USER_CHARGES


@<TRIPOS>ATOM
      1 C1         -9.2857    1.1650   52.8867 C.3     1  ZINC000444811358   -0.1100
      2 C2         -7.8668    1.5267   52.5308 C.ar    1  ZINC000444811358   -0.1300
      3 C3         -7.3331    2.7279   52.9583 C.ar    1  ZINC000444811358   -0.0700
      4 C4         -6.0328    3.0630   52.6335 C.ar    1  ZINC000444811358   -0.1500
      5 C5         -5.2601    2.1918   51.8769 C.ar    1  ZINC000444811358    0.1700
      6 N6         -3.9429    2.5293   51.5474 N.am    1  ZINC000444811358   -0.6800
      7 C7         -3.6413    2.9223   50.2939 C.2     1  ZINC000444811358    0.5200
      8 O8         -4.5119    2.9835   49.4516 O.2     1  ZINC000444811358   -0.5000
      9 C9         -2.2225    3.2858   49.9390 C.3     1  ZINC000444811358    0.0200
     10 N10        -1.3674    2.0976   50.0617 N.3     1  ZINC000444811358   -0.5000
     11 C11        -1.6478    1.1342   48.9888 C.3     1  ZINC000444811358    0.0200
     12 C12        -0.7386   -0.0860   49.1487 C.3     1  ZINC000444811358    0.1100
     13 H13        -0.2791   -0.0697   50.1369 H       1  ZINC000444811358    0.1200
     14 O14        -1.5120   -1.2786   49.0025 O.3     1  ZINC000444811358   -0.5400
     15 C15         0.3536   -0.0519   48.0777 C.3     1  ZINC000444811358    0.0300
     16 O16        -0.2253   -0.3176   46.7985 O.3     1  ZINC000444811358   -0.3000
     17 C17         0.5888   -0.2007   45.7167 C.ar    1  ZINC000444811358    0.1300
     18 C18         0.1413   -0.5956   44.4643 C.ar    1  ZINC000444811358   -0.2100
     19 C19         0.9706   -0.4753   43.3660 C.ar    1  ZINC000444811358   -0.0800
     20 C20         2.2459    0.0378   43.5143 C.ar    1  ZINC000444811358   -0.1600
     21 C21         2.6946    0.4317   44.7614 C.ar    1  ZINC000444811358   -0.0800
     22 C22         1.8669    0.3191   45.8618 C.ar    1  ZINC000444811358   -0.1500
     23 C23         0.0533    2.4708   50.0762 C.3     1  ZINC000444811358    0.0700
     24 C24         0.2852    3.6332   49.1086 C.3     1  ZINC000444811358   -0.1400
     25 C25         0.4545    2.8963   51.4900 C.3     1  ZINC000444811358   -0.1900
     26 C26        -5.7969    0.9851   51.4482 C.ar    1  ZINC000444811358   -0.1500
     27 C27        -7.0977    0.6521   51.7806 C.ar    1  ZINC000444811358    0.1200
     28 F28        -7.6216   -0.5214   51.3645 F       1  ZINC000444811358   -0.1300
     29 H29        -9.2969    0.6285   53.8354 H       1  ZINC000444811358    0.0700
     30 H30        -9.8809    2.0737   52.9762 H       1  ZINC000444811358    0.0700
     31 H31        -9.7058    0.5310   52.1059 H       1  ZINC000444811358    0.0700
     32 H32        -7.9337    3.4057   53.5468 H       1  ZINC000444811358    0.1400
     33 H33        -5.6175    4.0022   52.9677 H       1  ZINC000444811358    0.1300
     34 H34        -3.2466    2.4804   52.2210 H       1  ZINC000444811358    0.4100
     35 H35        -2.1875    3.6543   48.9138 H       1  ZINC000444811358    0.1300
     36 H36        -1.8659    4.0617   50.6164 H       1  ZINC000444811358    0.0700
     37 H37        -2.6902    0.8206   49.0454 H       1  ZINC000444811358    0.0500
     38 H38        -1.4611    1.6022   48.0223 H       1  ZINC000444811358    0.1000
     39 H39        -2.4171   -1.2038   49.3348 H       1  ZINC000444811358    0.3700
     40 H40         0.8218    0.9323   48.0673 H       1  ZINC000444811358    0.0600
     41 H41         1.1050   -0.8093   48.3009 H       1  ZINC000444811358    0.0700
     42 H42        -0.8546   -0.9971   44.3481 H       1  ZINC000444811358    0.1300
     43 H43         0.6227   -0.7825   42.3909 H       1  ZINC000444811358    0.1200
     44 H44         2.8929    0.1308   42.6545 H       1  ZINC000444811358    0.1200
     45 H45         3.6913    0.8319   44.8747 H       1  ZINC000444811358    0.1300
     46 H46         2.2178    0.6269   46.8357 H       1  ZINC000444811358    0.1300
     47 H47         0.6565    1.6164   49.7689 H       1  ZINC000444811358    0.0900
     48 H48        -0.2118    4.5261   49.4878 H       1  ZINC000444811358    0.0500
     49 H49         1.3547    3.8231   49.0186 H       1  ZINC000444811358    0.0600
     50 H50        -0.1222    3.3784   48.1302 H       1  ZINC000444811358    0.0700
     51 H51         0.2894    2.0682   52.1792 H       1  ZINC000444811358    0.0500
     52 H52         1.5087    3.1731   51.5006 H       1  ZINC000444811358    0.0700
     53 H53        -0.1486    3.7506   51.7972 H       1  ZINC000444811358    0.0600
     54 H54        -5.1985    0.3058   50.8594 H       1  ZINC000444811358    0.1500
@<TRIPOS>BOND
     1     1     2    1
     2     1    29    1
     3     1    30    1
     4     1    31    1
     5     2    27   ar
     6     2     3   ar
     7     3     4   ar
     8     3    32    1
     9     4     5   ar
    10     4    33    1
    11     5     6    1
    12     5    26   ar
    13     6     7   am
    14     6    34    1
    15     7     8    2
    16     7     9    1
    17     9    10    1
    18     9    35    1
    19     9    36    1
    20    10    11    1
    21    10    23    1
    22    11    12    1
    23    11    37    1
    24    11    38    1
    25    12    13    1
    26    12    14    1
    27    12    15    1
    28    14    39    1
    29    15    16    1
    30    15    40    1
    31    15    41    1
    32    16    17    1
    33    17    22   ar
    34    17    18   ar
    35    18    19   ar
    36    18    42    1
    37    19    20   ar
    38    19    43    1
    39    20    21   ar
    40    20    44    1
    41    21    22   ar
    42    21    45    1
    43    22    46    1
    44    23    24    1
    45    23    25    1
    46    23    47    1
    47    24    48    1
    48    24    49    1
    49    24    50    1
    50    25    51    1
    51    25    52    1
    52    25    53    1
    53    26    27   ar
    54    26    54    1
    55    27    28    1
@<TRIPOS>SUBSTRUCTURE
     1 ZINC000444811358        1 TEMP              0 ****  ****    0 ROOT


##########                                Name:    ZINC000074782190
##########                DOCK_Rotatable_Bonds:                   9
##########                         Heavy_Atoms:                  25
##########                    Molecular_Weight:             341.453
##########                DOCK_Rotatable_Bonds:                   9
##########                       Formal_Charge:          -0.0200006
##########                     HBond_Acceptors:                   5
##########                        HBond_Donors:                   1
##########                         Heavy_Atoms:                  25
##########                          Grid_Score:          -31.959835
##########                     Grid_vdw_energy:          -32.078861
##########                      Grid_es_energy:            0.119026
##########           Internal_energy_repulsive:           25.839333

@<TRIPOS>MOLECULE
ZINC000074782190
 52 53 1 0 0
SMALL
USER_CHARGES


@<TRIPOS>ATOM
      1 C1         -0.8997   -1.1926   48.6568 C.3     1  ZINC000074782190   -0.1100
      2 C2         -0.9658   -0.2723   47.4653 C.ar    1  ZINC000074782190   -0.1200
      3 C3         -0.7425   -0.7682   46.1956 C.ar    1  ZINC000074782190   -0.0800
      4 C4         -0.8025    0.0758   45.1019 C.ar    1  ZINC000074782190   -0.1500
      5 C5         -1.0863    1.4176   45.2761 C.ar    1  ZINC000074782190   -0.0900
      6 C6         -1.3108    1.9185   46.5440 C.ar    1  ZINC000074782190   -0.2100
      7 C7         -1.2565    1.0729   47.6422 C.ar    1  ZINC000074782190    0.1300
      8 O8         -1.4769    1.5631   48.8904 O.3     1  ZINC000074782190   -0.3000
      9 C9         -0.5306    2.5090   49.3923 C.3     1  ZINC000074782190    0.0700
     10 H10        -0.2782    3.2219   48.6074 H       1  ZINC000074782190    0.0800
     11 C11         0.7348    1.7754   49.8411 C.3     1  ZINC000074782190   -0.1800
     12 C12        -1.1372    3.2547   50.5826 C.3     1  ZINC000074782190    0.1400
     13 N13        -2.5016    2.7751   50.8155 N.am    1  ZINC000074782190   -0.7500
     14 C14        -3.4251    3.6013   51.3458 C.2     1  ZINC000074782190    0.7100
     15 O15        -3.1257    4.7446   51.6309 O.2     1  ZINC000074782190   -0.5900
     16 N16        -4.6804    3.1600   51.5601 N.am    1  ZINC000074782190   -0.6200
     17 C17        -5.6841    4.0580   52.1365 C.3     1  ZINC000074782190    0.1800
     18 C18        -5.5610    4.0513   53.6384 C.ar    1  ZINC000074782190   -0.1600
     19 C19        -6.5322    3.4447   54.4197 C.ar    1  ZINC000074782190   -0.0500
     20 C20        -6.3770    3.4624   55.7976 C.ar    1  ZINC000074782190   -0.1800
     21 C21        -5.2672    4.0798   56.3423 C.ar    1  ZINC000074782190    0.1000
     22 N22        -4.3628    4.6471   55.5679 N.ar    1  ZINC000074782190   -0.4900
     23 C23        -4.4750    4.6449   54.2543 C.ar    1  ZINC000074782190    0.1100
     24 C24        -5.0412    1.7823   51.2166 C.3     1  ZINC000074782190    0.1300
     25 C25        -5.9895    1.2234   52.2794 C.3     1  ZINC000074782190   -0.1800
     26 C26        -5.7344    1.7614   49.8529 C.3     1  ZINC000074782190   -0.1800
     27 H27        -1.8860   -1.6177   48.8427 H       1  ZINC000074782190    0.0700
     28 H28        -0.1898   -1.9953   48.4570 H       1  ZINC000074782190    0.0600
     29 H29        -0.5755   -0.6305   49.5326 H       1  ZINC000074782190    0.0700
     30 H30        -0.5207   -1.8161   46.0571 H       1  ZINC000074782190    0.1300
     31 H31        -0.6269   -0.3138   44.1101 H       1  ZINC000074782190    0.1200
     32 H32        -1.1322    2.0748   44.4203 H       1  ZINC000074782190    0.1200
     33 H33        -1.5321    2.9668   46.6796 H       1  ZINC000074782190    0.1300
     34 H34         0.4824    1.0625   50.6260 H       1  ZINC000074782190    0.0700
     35 H35         1.1670    1.2443   48.9930 H       1  ZINC000074782190    0.0700
     36 H36         1.4566    2.4969   50.2239 H       1  ZINC000074782190    0.0800
     37 H37        -0.5320    3.0742   51.4711 H       1  ZINC000074782190    0.0800
     38 H38        -1.1591    4.3234   50.3690 H       1  ZINC000074782190    0.0900
     39 H39        -2.7405    1.8629   50.5881 H       1  ZINC000074782190    0.4100
     40 H40        -5.5238    5.0695   51.7633 H       1  ZINC000074782190    0.0900
     41 H41        -6.6805    3.7196   51.8522 H       1  ZINC000074782190    0.1000
     42 H42        -7.3896    2.9698   53.9660 H       1  ZINC000074782190    0.1400
     43 H43        -7.1144    2.9999   56.4368 H       1  ZINC000074782190    0.1300
     44 H44        -5.1393    4.0983   57.4145 H       1  ZINC000074782190    0.1600
     45 H45        -3.7140    5.1197   53.6527 H       1  ZINC000074782190    0.1500
     46 H46        -4.1402    1.1702   51.1756 H       1  ZINC000074782190    0.1000
     47 H47        -6.9268    1.7793   52.2583 H       1  ZINC000074782190    0.0600
     48 H48        -6.1863    0.1712   52.0735 H       1  ZINC000074782190    0.0700
     49 H49        -5.5308    1.3215   53.2633 H       1  ZINC000074782190    0.0600
     50 H50        -5.0229    2.0502   49.0792 H       1  ZINC000074782190    0.0700
     51 H51        -6.1051    0.7569   49.6490 H       1  ZINC000074782190    0.0700
     52 H52        -6.5691    2.4626   49.8589 H       1  ZINC000074782190    0.0700
@<TRIPOS>BOND
     1     1     2    1
     2     1    27    1
     3     1    28    1
     4     1    29    1
     5     2     7   ar
     6     2     3   ar
     7     3     4   ar
     8     3    30    1
     9     4     5   ar
    10     4    31    1
    11     5     6   ar
    12     5    32    1
    13     6     7   ar
    14     6    33    1
    15     7     8    1
    16     8     9    1
    17     9    10    1
    18     9    11    1
    19     9    12    1
    20    11    34    1
    21    11    35    1
    22    11    36    1
    23    12    13    1
    24    12    37    1
    25    12    38    1
    26    13    14   am
    27    13    39    1
    28    14    15    2
    29    14    16   am
    30    16    17    1
    31    16    24    1
    32    17    18    1
    33    17    40    1
    34    17    41    1
    35    18    23   ar
    36    18    19   ar
    37    19    20   ar
    38    19    42    1
    39    20    21   ar
    40    20    43    1
    41    21    22   ar
    42    21    44    1
    43    22    23   ar
    44    23    45    1
    45    24    25    1
    46    24    26    1
    47    24    46    1
    48    25    47    1
    49    25    48    1
    50    25    49    1
    51    26    50    1
    52    26    51    1
    53    26    52    1
@<TRIPOS>SUBSTRUCTURE
     1 ZINC000074782190        1 TEMP              0 ****  ****    0 ROOT


##########                                Name:    ZINC000114394234
##########                DOCK_Rotatable_Bonds:                   9
##########                         Heavy_Atoms:                  27
##########                    Molecular_Weight:             365.392
##########                DOCK_Rotatable_Bonds:                   9
##########                       Formal_Charge:           0.0300002
##########                     HBond_Acceptors:                   8
##########                        HBond_Donors:                   3
##########                         Heavy_Atoms:                  27
##########                          Grid_Score:          -31.926119
##########                     Grid_vdw_energy:          -29.542294
##########                      Grid_es_energy:           -2.383825
##########           Internal_energy_repulsive:           10.481008

@<TRIPOS>MOLECULE
ZINC000114394234
 46 48 1 0 0
SMALL
USER_CHARGES


@<TRIPOS>ATOM
      1 C1         -5.8203    4.5317   56.3483 C.3     1  ZINC000114394234   -0.1600
      2 C2         -5.9732    3.2110   55.5912 C.3     1  ZINC000114394234    0.1300
      3 H3         -5.2484    2.4896   55.9688 H       1  ZINC000114394234    0.1200
      4 N4         -7.3284    2.6898   55.7873 N.am    1  ZINC000114394234   -0.7100
      5 C5         -7.6216    1.9728   56.8902 C.2     1  ZINC000114394234    0.5200
      6 O6         -6.7633    1.7577   57.7196 O.2     1  ZINC000114394234   -0.5100
      7 C7         -9.0159    1.4383   57.0927 C.3     1  ZINC000114394234    0.0400
      8 O8         -8.9604    0.2512   57.8863 O.3     1  ZINC000114394234   -0.2900
      9 C9        -10.1390   -0.3749   58.1433 C.ar    1  ZINC000114394234    0.1300
     10 C10       -11.3199    0.1211   57.6102 C.ar    1  ZINC000114394234   -0.2100
     11 C11       -12.5165   -0.5174   57.8725 C.ar    1  ZINC000114394234   -0.0800
     12 C12       -12.5380   -1.6495   58.6659 C.ar    1  ZINC000114394234   -0.1600
     13 C13       -11.3625   -2.1455   59.1989 C.ar    1  ZINC000114394234   -0.0800
     14 C14       -10.1625   -1.5142   58.9344 C.ar    1  ZINC000114394234   -0.1500
     15 C15        -5.7320    3.4433   54.1219 C.2     1  ZINC000114394234    0.5100
     16 O16        -5.1439    4.4382   53.7538 O.2     1  ZINC000114394234   -0.5100
     17 N17        -6.1697    2.5457   53.2169 N.am    1  ZINC000114394234   -0.6700
     18 C18        -5.9456    2.7615   51.8526 C.ar    1  ZINC000114394234    0.1300
     19 C19        -6.9062    3.4075   51.0844 C.ar    1  ZINC000114394234   -0.1200
     20 C20        -6.6883    3.6225   49.7365 C.ar    1  ZINC000114394234   -0.1000
     21 C21        -5.5157    3.1961   49.1460 C.ar    1  ZINC000114394234   -0.0900
     22 C22        -4.5468    2.5466   49.9090 C.ar    1  ZINC000114394234    0.0000
     23 C23        -3.2857    2.0871   49.2757 C.2     1  ZINC000114394234    0.2700
     24 N24        -2.5095    1.1247   49.7233 N.2     1  ZINC000114394234   -0.3000
     25 N25        -1.4341    1.0228   48.8259 N.pl3   1  ZINC000114394234   -0.4800
     26 C26        -1.6396    1.9525   47.8756 C.2     1  ZINC000114394234    0.2700
     27 N27        -2.7525    2.5803   48.1498 N.2     1  ZINC000114394234   -0.5300
     28 C28        -4.7622    2.3356   51.2679 C.ar    1  ZINC000114394234   -0.0800
     29 H29        -6.5450    5.2530   55.9707 H       1  ZINC000114394234    0.0700
     30 H30        -5.9947    4.3636   57.4111 H       1  ZINC000114394234    0.0800
     31 H31        -4.8121    4.9194   56.2024 H       1  ZINC000114394234    0.0800
     32 H32        -8.0145    2.8608   55.1233 H       1  ZINC000114394234    0.4100
     33 H33        -9.6220    2.1877   57.6018 H       1  ZINC000114394234    0.1000
     34 H34        -9.4609    1.2077   56.1247 H       1  ZINC000114394234    0.1000
     35 H35       -11.3037    1.0058   56.9909 H       1  ZINC000114394234    0.1300
     36 H36       -13.4361   -0.1317   57.4577 H       1  ZINC000114394234    0.1300
     37 H37       -13.4746   -2.1470   58.8701 H       1  ZINC000114394234    0.1300
     38 H38       -11.3820   -3.0297   59.8186 H       1  ZINC000114394234    0.1300
     39 H39        -9.2445   -1.9021   59.3509 H       1  ZINC000114394234    0.1300
     40 H40        -6.6399    1.7500   53.5113 H       1  ZINC000114394234    0.4200
     41 H41        -7.8255    3.7425   51.5415 H       1  ZINC000114394234    0.1300
     42 H42        -7.4380    4.1252   49.1434 H       1  ZINC000114394234    0.1400
     43 H43        -5.3491    3.3654   48.0925 H       1  ZINC000114394234    0.1400
     44 H44        -0.6893    0.4038   48.8808 H       1  ZINC000114394234    0.4400
     45 H45        -0.9974    2.1441   47.0287 H       1  ZINC000114394234    0.2300
     46 H46        -4.0144    1.8330   51.8633 H       1  ZINC000114394234    0.1500
@<TRIPOS>BOND
     1     1     2    1
     2     1    29    1
     3     1    30    1
     4     1    31    1
     5     2     3    1
     6     2     4    1
     7     2    15    1
     8     4     5   am
     9     4    32    1
    10     5     6    2
    11     5     7    1
    12     7     8    1
    13     7    33    1
    14     7    34    1
    15     8     9    1
    16     9    14   ar
    17     9    10   ar
    18    10    11   ar
    19    10    35    1
    20    11    12   ar
    21    11    36    1
    22    12    13   ar
    23    12    37    1
    24    13    14   ar
    25    13    38    1
    26    14    39    1
    27    15    16    2
    28    15    17   am
    29    17    18    1
    30    17    40    1
    31    18    28   ar
    32    18    19   ar
    33    19    20   ar
    34    19    41    1
    35    20    21   ar
    36    20    42    1
    37    21    22   ar
    38    21    43    1
    39    22    23    1
    40    22    28   ar
    41    23    27    1
    42    23    24    2
    43    24    25    1
    44    25    26    1
    45    25    44    1
    46    26    27    2
    47    26    45    1
    48    28    46    1
@<TRIPOS>SUBSTRUCTURE
     1 ZINC000114394234        1 TEMP              0 ****  ****    0 ROOT


##########                                Name:    ZINC000767361237
##########                DOCK_Rotatable_Bonds:                  10
##########                         Heavy_Atoms:                  30
##########                    Molecular_Weight:             409.439
##########                DOCK_Rotatable_Bonds:                  10
##########                       Formal_Charge:          -0.0300005
##########                     HBond_Acceptors:                   7
##########                        HBond_Donors:                   1
##########                         Heavy_Atoms:                  30
##########                          Grid_Score:          -31.921677
##########                     Grid_vdw_energy:          -30.932335
##########                      Grid_es_energy:           -0.989343
##########           Internal_energy_repulsive:           15.800285

@<TRIPOS>MOLECULE
ZINC000767361237
 53 55 1 0 0
SMALL
USER_CHARGES


@<TRIPOS>ATOM
      1 C1        -14.1985    2.3099   41.9388 C.3     1  ZINC000767361237   -0.1200
      2 C2        -14.1107    2.1533   43.4351 C.ar    1  ZINC000767361237   -0.0900
      3 C3        -12.9310    2.4472   44.0929 C.ar    1  ZINC000767361237   -0.1200
      4 C4        -12.8505    2.3035   45.4654 C.ar    1  ZINC000767361237   -0.1100
      5 C5        -13.9499    1.8663   46.1802 C.ar    1  ZINC000767361237   -0.0800
      6 C6        -13.8620    1.7092   47.6764 C.3     1  ZINC000767361237   -0.0800
      7 H7        -14.8435    1.8815   48.1180 H       1  ZINC000767361237    0.0900
      8 C8        -12.8647    2.7245   48.2380 C.3     1  ZINC000767361237   -0.1500
      9 C9        -13.3925    0.2927   48.0138 C.3     1  ZINC000767361237    0.1300
     10 H10       -12.3438    0.1821   47.7377 H       1  ZINC000767361237    0.1400
     11 O11       -14.1784   -0.6551   47.2887 O.3     1  ZINC000767361237   -0.5200
     12 C12       -13.5508    0.0499   49.4927 C.2     1  ZINC000767361237    0.4300
     13 O13       -14.6497   -0.1321   49.9608 O.2     1  ZINC000767361237   -0.5000
     14 O14       -12.4709    0.0359   50.2899 O.3     1  ZINC000767361237   -0.3300
     15 C15       -12.7080   -0.0600   51.7193 C.3     1  ZINC000767361237    0.0100
     16 C16       -11.3995   -0.2876   52.4313 C.2     1  ZINC000767361237    0.3700
     17 O17       -10.7316   -1.2596   52.1714 O.2     1  ZINC000767361237   -0.4200
     18 C18       -10.9244    0.6979   53.4677 C.3     1  ZINC000767361237   -0.1800
     19 C19       -11.8988    0.7069   54.6473 C.3     1  ZINC000767361237    0.1200
     20 N20       -11.3190   -0.0414   55.7653 N.am    1  ZINC000767361237   -0.5800
     21 C21       -11.6046   -1.3244   56.0520 C.2     1  ZINC000767361237    0.5700
     22 O22       -12.3720   -2.0348   55.4346 O.2     1  ZINC000767361237   -0.4600
     23 C23       -10.8273   -1.7249   57.2438 C.ar    1  ZINC000767361237   -0.1400
     24 C24       -10.7162   -2.8942   57.9783 C.ar    1  ZINC000767361237   -0.0400
     25 C25        -9.8710   -2.9383   59.0766 C.ar    1  ZINC000767361237   -0.0900
     26 C26        -9.1396   -1.8245   59.4427 C.ar    1  ZINC000767361237   -0.0900
     27 C27        -9.2407   -0.6474   58.7171 C.ar    1  ZINC000767361237   -0.0400
     28 C28       -10.0812   -0.5886   57.6174 C.ar    1  ZINC000767361237   -0.1400
     29 C29       -10.4266    0.4621   56.6370 C.2     1  ZINC000767361237    0.5700
     30 O30        -9.9808    1.5918   56.6219 O.2     1  ZINC000767361237   -0.4600
     31 C31       -15.1301    1.5737   45.5227 C.ar    1  ZINC000767361237   -0.1100
     32 C32       -15.2118    1.7210   44.1506 C.ar    1  ZINC000767361237   -0.1200
     33 H33       -14.5242    3.3218   41.6979 H       1  ZINC000767361237    0.0700
     34 H34       -13.2189    2.1286   41.4964 H       1  ZINC000767361237    0.0700
     35 H35       -14.9158    1.5926   41.5398 H       1  ZINC000767361237    0.0700
     36 H36       -12.0720    2.7888   43.5343 H       1  ZINC000767361237    0.1200
     37 H37       -11.9285    2.5325   45.9791 H       1  ZINC000767361237    0.1200
     38 H38       -12.8012    2.6109   49.3202 H       1  ZINC000767361237    0.0800
     39 H39       -11.8832    2.5522   47.7963 H       1  ZINC000767361237    0.0700
     40 H40       -13.1993    3.7337   47.9976 H       1  ZINC000767361237    0.0600
     41 H41       -13.9209   -1.5753   47.4372 H       1  ZINC000767361237    0.3900
     42 H42       -13.1595    0.8659   52.0756 H       1  ZINC000767361237    0.1100
     43 H43       -13.3810   -0.8935   51.9207 H       1  ZINC000767361237    0.1100
     44 H44        -9.9335    0.4081   53.8173 H       1  ZINC000767361237    0.1100
     45 H45       -10.8775    1.6939   53.0275 H       1  ZINC000767361237    0.1100
     46 H46       -12.0856    1.7353   54.9565 H       1  ZINC000767361237    0.1100
     47 H47       -12.8375    0.2417   54.3467 H       1  ZINC000767361237    0.1100
     48 H48       -11.2857   -3.7676   57.6969 H       1  ZINC000767361237    0.1400
     49 H49        -9.7839   -3.8493   59.6500 H       1  ZINC000767361237    0.1400
     50 H50        -8.4849   -1.8711   60.3004 H       1  ZINC000767361237    0.1400
     51 H51        -8.6664    0.2199   59.0076 H       1  ZINC000767361237    0.1400
     52 H52       -15.9892    1.2324   46.0811 H       1  ZINC000767361237    0.1200
     53 H53       -16.1338    1.4924   43.6368 H       1  ZINC000767361237    0.1200
@<TRIPOS>BOND
     1     1     2    1
     2     1    33    1
     3     1    34    1
     4     1    35    1
     5     2    32   ar
     6     2     3   ar
     7     3     4   ar
     8     3    36    1
     9     4     5   ar
    10     4    37    1
    11     5     6    1
    12     5    31   ar
    13     6     7    1
    14     6     8    1
    15     6     9    1
    16     8    38    1
    17     8    39    1
    18     8    40    1
    19     9    10    1
    20     9    11    1
    21     9    12    1
    22    11    41    1
    23    12    13    2
    24    12    14    1
    25    14    15    1
    26    15    16    1
    27    15    42    1
    28    15    43    1
    29    16    17    2
    30    16    18    1
    31    18    19    1
    32    18    44    1
    33    18    45    1
    34    19    20    1
    35    19    46    1
    36    19    47    1
    37    20    29   am
    38    20    21   am
    39    21    22    2
    40    21    23    1
    41    23    28   ar
    42    23    24   ar
    43    24    25   ar
    44    24    48    1
    45    25    26   ar
    46    25    49    1
    47    26    27   ar
    48    26    50    1
    49    27    28   ar
    50    27    51    1
    51    28    29    1
    52    29    30    2
    53    31    32   ar
    54    31    52    1
    55    32    53    1
@<TRIPOS>SUBSTRUCTURE
     1 ZINC000767361237        1 TEMP              0 ****  ****    0 ROOT


##########                                Name:    ZINC000864730443
##########                DOCK_Rotatable_Bonds:                  10
##########                         Heavy_Atoms:                  25
##########                    Molecular_Weight:             356.462
##########                DOCK_Rotatable_Bonds:                  10
##########                       Formal_Charge:           0.0299988
##########                     HBond_Acceptors:                   7
##########                        HBond_Donors:                   2
##########                         Heavy_Atoms:                  25
##########                          Grid_Score:          -31.914066
##########                     Grid_vdw_energy:          -30.784098
##########                      Grid_es_energy:           -1.129968
##########           Internal_energy_repulsive:           42.353077

@<TRIPOS>MOLECULE
ZINC000864730443
 57 58 1 0 0
SMALL
USER_CHARGES


@<TRIPOS>ATOM
      1 C1          2.6253    4.5465   44.7649 C.3     1  ZINC000864730443   -0.1800
      2 C2          1.4420    4.7333   43.8131 C.3     1  ZINC000864730443    0.1400
      3 C3          1.2783    6.2194   43.4884 C.3     1  ZINC000864730443   -0.1800
      4 C4          1.6986    3.9543   42.5215 C.3     1  ZINC000864730443   -0.1400
      5 O5          0.2310    4.2393   44.4437 O.3     1  ZINC000864730443   -0.3600
      6 C6          0.2358    2.9579   44.8568 C.2     1  ZINC000864730443    0.6500
      7 O7          1.1765    2.2368   44.5888 O.2     1  ZINC000864730443   -0.5700
      8 N8         -0.8025    2.4750   45.5674 N.am    1  ZINC000864730443   -0.7100
      9 C9         -0.7964    1.0811   46.0184 C.3     1  ZINC000864730443    0.1500
     10 C10        -0.3920    1.0239   47.4929 C.3     1  ZINC000864730443   -0.1300
     11 C11        -1.2482    1.9762   48.2872 C.2     1  ZINC000864730443    0.5300
     12 O12        -0.7933    3.0391   48.6536 O.2     1  ZINC000864730443   -0.5300
     13 N13        -2.5193    1.6466   48.5906 N.am    1  ZINC000864730443   -0.7200
     14 C14        -3.3517    2.5724   49.3629 C.3     1  ZINC000864730443    0.1200
     15 C15        -4.3289    1.7770   50.2308 C.3     1  ZINC000864730443   -0.1300
     16 C16        -5.2716    2.7418   50.9527 C.3     1  ZINC000864730443    0.0800
     17 H17        -5.8623    3.3046   50.2298 H       1  ZINC000864730443    0.0800
     18 C18        -6.2013    1.9641   51.9179 C.3     1  ZINC000864730443   -0.1500
     19 C19        -6.5541    3.0739   52.9455 C.3     1  ZINC000864730443   -0.1600
     20 C20        -5.2501    3.8987   52.9977 C.3     1  ZINC000864730443    0.0500
     21 O21        -4.5231    3.6375   51.7899 O.3     1  ZINC000864730443   -0.3800
     22 C22        -0.5833   -0.4011   48.0212 C.3     1  ZINC000864730443   -0.1000
     23 C23        -0.1025   -0.4641   49.4742 C.3     1  ZINC000864730443   -0.1600
     24 C24         1.3585   -0.0113   49.5401 C.3     1  ZINC000864730443    0.0600
     25 O25         1.4712    1.3091   49.0054 O.3     1  ZINC000864730443   -0.3700
     26 C26         1.0801    1.4192   47.6352 C.3     1  ZINC000864730443    0.0800
     27 H27         2.4425    5.1015   45.6850 H       1  ZINC000864730443    0.0900
     28 H28         2.7420    3.4878   44.9962 H       1  ZINC000864730443    0.0600
     29 H29         3.5343    4.9173   44.2915 H       1  ZINC000864730443    0.0700
     30 H30         2.1874    6.5902   43.0150 H       1  ZINC000864730443    0.0700
     31 H31         0.4353    6.3524   42.8103 H       1  ZINC000864730443    0.0600
     32 H32         1.0955    6.7743   44.4086 H       1  ZINC000864730443    0.0900
     33 H33         1.8153    2.8955   42.7528 H       1  ZINC000864730443    0.0700
     34 H34         0.8556    4.0873   41.8434 H       1  ZINC000864730443    0.0700
     35 H35         2.6077    4.3251   42.0481 H       1  ZINC000864730443    0.0800
     36 H36        -1.5539    3.0503   45.7803 H       1  ZINC000864730443    0.4100
     37 H37        -1.7928    0.6559   45.8981 H       1  ZINC000864730443    0.0900
     38 H38        -0.0834    0.5100   45.4237 H       1  ZINC000864730443    0.0800
     39 H39        -2.8832    0.7965   48.2976 H       1  ZINC000864730443    0.4000
     40 H40        -2.7160    3.1865   50.0009 H       1  ZINC000864730443    0.0700
     41 H41        -3.9102    3.2139   48.6812 H       1  ZINC000864730443    0.0700
     42 H42        -4.9104    1.1045   49.6001 H       1  ZINC000864730443    0.0800
     43 H43        -3.7719    1.1954   50.9653 H       1  ZINC000864730443    0.0800
     44 H44        -7.0932    1.6080   51.4024 H       1  ZINC000864730443    0.0900
     45 H45        -5.6709    1.1405   52.3958 H       1  ZINC000864730443    0.0800
     46 H46        -7.3845    3.6832   52.5887 H       1  ZINC000864730443    0.0800
     47 H47        -6.7793    2.6422   53.9207 H       1  ZINC000864730443    0.0800
     48 H48        -5.4867    4.9607   53.0629 H       1  ZINC000864730443    0.0700
     49 H49        -4.6563    3.5972   53.8605 H       1  ZINC000864730443    0.0700
     50 H50        -1.6390   -0.6686   47.9746 H       1  ZINC000864730443    0.0800
     51 H51        -0.0027   -1.0960   47.4145 H       1  ZINC000864730443    0.0800
     52 H52        -0.7159    0.1940   50.0897 H       1  ZINC000864730443    0.0900
     53 H53        -0.1836   -1.4874   49.8407 H       1  ZINC000864730443    0.0800
     54 H54         1.6932   -0.0132   50.5774 H       1  ZINC000864730443    0.1000
     55 H55         1.9771   -0.6935   48.9570 H       1  ZINC000864730443    0.0500
     56 H56         1.6952    0.7555   47.0274 H       1  ZINC000864730443    0.0700
     57 H57         1.2144    2.4477   47.3004 H       1  ZINC000864730443    0.1000
@<TRIPOS>BOND
     1     1     2    1
     2     1    27    1
     3     1    28    1
     4     1    29    1
     5     2     3    1
     6     2     4    1
     7     2     5    1
     8     3    30    1
     9     3    31    1
    10     3    32    1
    11     4    33    1
    12     4    34    1
    13     4    35    1
    14     5     6    1
    15     6     7    2
    16     6     8   am
    17     8     9    1
    18     8    36    1
    19     9    10    1
    20     9    37    1
    21     9    38    1
    22    10    26    1
    23    10    11    1
    24    10    22    1
    25    11    12    2
    26    11    13   am
    27    13    14    1
    28    13    39    1
    29    14    15    1
    30    14    40    1
    31    14    41    1
    32    15    16    1
    33    15    42    1
    34    15    43    1
    35    16    17    1
    36    16    21    1
    37    16    18    1
    38    18    19    1
    39    18    44    1
    40    18    45    1
    41    19    20    1
    42    19    46    1
    43    19    47    1
    44    20    21    1
    45    20    48    1
    46    20    49    1
    47    22    23    1
    48    22    50    1
    49    22    51    1
    50    23    24    1
    51    23    52    1
    52    23    53    1
    53    24    25    1
    54    24    54    1
    55    24    55    1
    56    25    26    1
    57    26    56    1
    58    26    57    1
@<TRIPOS>SUBSTRUCTURE
     1 ZINC000864730443        1 TEMP              0 ****  ****    0 ROOT


##########                                Name:    ZINC001340305486
##########                DOCK_Rotatable_Bonds:                   8
##########                         Heavy_Atoms:                  27
##########                    Molecular_Weight:             378.431
##########                DOCK_Rotatable_Bonds:                   8
##########                       Formal_Charge:          0.00999955
##########                     HBond_Acceptors:                  10
##########                        HBond_Donors:                   2
##########                         Heavy_Atoms:                  27
##########                          Grid_Score:          -31.908770
##########                     Grid_vdw_energy:          -29.086599
##########                      Grid_es_energy:           -2.822170
##########           Internal_energy_repulsive:           10.048798

@<TRIPOS>MOLECULE
ZINC001340305486
 53 55 1 0 0
SMALL
USER_CHARGES


@<TRIPOS>ATOM
      1 C1        -19.8944   -2.4622   58.1521 C.3     1  ZINC001340305486    0.0900
      2 N2        -18.4559   -2.3305   57.9085 N.am    1  ZINC001340305486   -0.7300
      3 C3        -17.8863   -1.1093   57.8796 C.2     1  ZINC001340305486    0.5200
      4 O4        -18.5650   -0.1194   58.0538 O.2     1  ZINC001340305486   -0.5100
      5 C5        -16.4062   -0.9738   57.6308 C.3     1  ZINC001340305486    0.0600
      6 H6        -16.0301   -0.0894   58.1450 H       1  ZINC001340305486    0.0900
      7 C7        -16.1504   -0.8383   56.1254 C.3     1  ZINC001340305486    0.0900
      8 N8        -14.6983   -0.8964   55.8943 N.am    1  ZINC001340305486   -0.5800
      9 C9        -14.0760    0.0403   55.1515 C.2     1  ZINC001340305486    0.5100
     10 O10       -14.7141    0.9492   54.6622 O.2     1  ZINC001340305486   -0.5200
     11 C11       -12.6001   -0.0403   54.9303 C.2     1  ZINC001340305486    0.5200
     12 O12       -11.8362    0.3720   55.7783 O.2     1  ZINC001340305486   -0.5000
     13 N13       -12.1177   -0.5709   53.7892 N.am    1  ZINC001340305486   -0.6900
     14 C14       -10.6709   -0.6483   53.5718 C.3     1  ZINC001340305486    0.1200
     15 C15       -10.2057    0.5838   52.7930 C.3     1  ZINC001340305486   -0.0400
     16 C16        -8.8470    0.3180   52.1975 C.2     1  ZINC001340305486    0.1700
     17 N17        -8.3519   -0.8502   51.8845 N.2     1  ZINC001340305486   -0.2800
     18 N18        -7.1708   -0.7035   51.3934 N.2     1  ZINC001340305486   -0.2900
     19 C19        -6.8639    0.5621   51.3674 C.2     1  ZINC001340305486    0.1900
     20 C20        -5.5918    1.1800   50.8478 C.3     1  ZINC001340305486   -0.0400
     21 C21        -5.0831    2.2077   51.8631 C.3     1  ZINC001340305486   -0.1200
     22 C22        -5.7133    3.5668   51.5741 C.3     1  ZINC001340305486   -0.1300
     23 C23        -7.1312    3.3948   51.0313 C.3     1  ZINC001340305486   -0.1400
     24 C24        -8.0027    2.6912   52.0754 C.3     1  ZINC001340305486    0.1000
     25 N25        -7.9142    1.2434   51.8817 N.pl3   1  ZINC001340305486   -0.4600
     26 C26       -13.9458   -2.0077   56.4978 C.3     1  ZINC001340305486    0.0200
     27 C27       -14.3091   -2.0862   57.9850 C.3     1  ZINC001340305486    0.0500
     28 O28       -15.7313   -2.1346   58.1213 O.3     1  ZINC001340305486   -0.3500
     29 H29       -20.1389   -2.0346   59.1244 H       1  ZINC001340305486    0.0600
     30 H30       -20.4447   -1.9334   57.3738 H       1  ZINC001340305486    0.0600
     31 H31       -20.1701   -3.5167   58.1394 H       1  ZINC001340305486    0.0800
     32 H32       -17.9133   -3.1221   57.7680 H       1  ZINC001340305486    0.4000
     33 H33       -16.6396   -1.6553   55.5949 H       1  ZINC001340305486    0.0900
     34 H34       -16.5406    0.1158   55.7712 H       1  ZINC001340305486    0.1100
     35 H35       -12.7283   -0.9015   53.1120 H       1  ZINC001340305486    0.4200
     36 H36       -10.1603   -0.6840   54.5342 H       1  ZINC001340305486    0.0900
     37 H37       -10.4366   -1.5477   53.0026 H       1  ZINC001340305486    0.0800
     38 H38       -10.9163    0.7990   51.9951 H       1  ZINC001340305486    0.0900
     39 H39       -10.1461    1.4385   53.4669 H       1  ZINC001340305486    0.1100
     40 H40        -4.8400    0.4032   50.7076 H       1  ZINC001340305486    0.1000
     41 H41        -5.7887    1.6741   49.8963 H       1  ZINC001340305486    0.0900
     42 H42        -5.3541    1.8886   52.8695 H       1  ZINC001340305486    0.0600
     43 H43        -3.9986    2.2870   51.7873 H       1  ZINC001340305486    0.0800
     44 H44        -5.7487    4.1499   52.4944 H       1  ZINC001340305486    0.0700
     45 H45        -5.1077    4.0948   50.8375 H       1  ZINC001340305486    0.0800
     46 H46        -7.5545    4.3738   50.8061 H       1  ZINC001340305486    0.0900
     47 H47        -7.1009    2.7959   50.1211 H       1  ZINC001340305486    0.0800
     48 H48        -7.6531    2.9500   53.0748 H       1  ZINC001340305486    0.0900
     49 H49        -9.0387    3.0092   51.9584 H       1  ZINC001340305486    0.1000
     50 H50       -14.2130   -2.9424   56.0047 H       1  ZINC001340305486    0.0800
     51 H51       -12.8762   -1.8279   56.3901 H       1  ZINC001340305486    0.1700
     52 H52       -13.8709   -2.9845   58.4199 H       1  ZINC001340305486    0.1200
     53 H53       -13.9244   -1.2062   58.5006 H       1  ZINC001340305486    0.0600
@<TRIPOS>BOND
     1     1     2    1
     2     1    29    1
     3     1    30    1
     4     1    31    1
     5     2     3   am
     6     2    32    1
     7     3     4    2
     8     3     5    1
     9     5     6    1
    10     5    28    1
    11     5     7    1
    12     7     8    1
    13     7    33    1
    14     7    34    1
    15     8     9   am
    16     8    26    1
    17     9    10    2
    18     9    11    1
    19    11    12    2
    20    11    13   am
    21    13    14    1
    22    13    35    1
    23    14    15    1
    24    14    36    1
    25    14    37    1
    26    15    16    1
    27    15    38    1
    28    15    39    1
    29    16    25    1
    30    16    17    2
    31    17    18    1
    32    18    19    2
    33    19    25    1
    34    19    20    1
    35    20    21    1
    36    20    40    1
    37    20    41    1
    38    21    22    1
    39    21    42    1
    40    21    43    1
    41    22    23    1
    42    22    44    1
    43    22    45    1
    44    23    24    1
    45    23    46    1
    46    23    47    1
    47    24    25    1
    48    24    48    1
    49    24    49    1
    50    26    27    1
    51    26    50    1
    52    26    51    1
    53    27    28    1
    54    27    52    1
    55    27    53    1
@<TRIPOS>SUBSTRUCTURE
     1 ZINC001340305486        1 TEMP              0 ****  ****    0 ROOT


##########                                Name:    ZINC000541000201
##########                DOCK_Rotatable_Bonds:                  10
##########                         Heavy_Atoms:                  30
##########                    Molecular_Weight:             420.413
##########                DOCK_Rotatable_Bonds:                  10
##########                       Formal_Charge:               -0.03
##########                     HBond_Acceptors:                   9
##########                        HBond_Donors:                   1
##########                         Heavy_Atoms:                  30
##########                          Grid_Score:          -31.906342
##########                     Grid_vdw_energy:          -32.002846
##########                      Grid_es_energy:            0.096505
##########           Internal_energy_repulsive:           21.971712

@<TRIPOS>MOLECULE
ZINC000541000201
 52 54 1 0 0
SMALL
USER_CHARGES


@<TRIPOS>ATOM
      1 C1         -2.5191    4.8113   52.5253 C.3     1  ZINC000541000201    0.0400
      2 O2         -3.3108    4.1398   51.5101 O.3     1  ZINC000541000201   -0.3500
      3 C3         -2.6463    3.3939   50.6136 C.2     1  ZINC000541000201    0.4500
      4 O4         -1.4412    3.3215   50.6626 O.2     1  ZINC000541000201   -0.4900
      5 C5         -3.4033    2.6467   49.5461 C.3     1  ZINC000541000201    0.2100
      6 H6         -3.8403    3.3581   48.8452 H       1  ZINC000541000201    0.1400
      7 N7         -4.4686    1.8550   50.1662 N.am    1  ZINC000541000201   -0.7100
      8 C8         -5.6462    2.4338   50.4741 C.2     1  ZINC000541000201    0.5800
      9 O9         -5.8250    3.6125   50.2356 O.2     1  ZINC000541000201   -0.5300
     10 C10        -6.7190    1.6365   51.1006 C.ar    1  ZINC000541000201   -0.2300
     11 C11        -7.7853    2.2688   51.7564 C.ar    1  ZINC000541000201    0.0200
     12 C12        -8.7639    1.4806   52.3267 C.ar    1  ZINC000541000201   -0.2000
     13 C13        -8.6624    0.0962   52.2335 C.ar    1  ZINC000541000201    0.3500
     14 O14        -9.6204   -0.6827   52.7915 O.3     1  ZINC000541000201   -0.2900
     15 C15       -10.6895   -0.0144   53.4642 C.3     1  ZINC000541000201    0.0800
     16 C16       -11.7236    0.5193   52.4420 C.3     1  ZINC000541000201   -0.1400
     17 C17       -13.0147    0.6338   53.2900 C.3     1  ZINC000541000201   -0.1200
     18 C18       -12.9690   -0.5985   54.2169 C.3     1  ZINC000541000201   -0.1200
     19 C19       -11.4905   -1.0106   54.3277 C.3     1  ZINC000541000201   -0.1200
     20 N20        -7.6429   -0.4713   51.6069 N.ar    1  ZINC000541000201   -0.5400
     21 C21        -6.6904    0.2423   51.0443 C.ar    1  ZINC000541000201    0.1800
     22 C22        -2.4604    1.7305   48.8095 C.ar    1  ZINC000541000201   -0.1300
     23 C23        -2.0958    0.5202   49.3699 C.ar    1  ZINC000541000201   -0.0700
     24 C24        -1.2315   -0.3214   48.6967 C.ar    1  ZINC000541000201   -0.1300
     25 C25        -0.7299    0.0484   47.4572 C.ar    1  ZINC000541000201    0.1200
     26 O26         0.1201   -0.7781   46.7929 O.3     1  ZINC000541000201   -0.3200
     27 C27         1.4428   -0.2928   46.5545 C.3     1  ZINC000541000201    0.4100
     28 F28         1.5144    0.2538   45.2687 F       1  ZINC000541000201   -0.2000
     29 F29         1.7554    0.6919   47.4979 F       1  ZINC000541000201   -0.2000
     30 C30        -1.0977    1.2631   46.8970 C.ar    1  ZINC000541000201   -0.1900
     31 C31        -1.9659    2.0991   47.5721 C.ar    1  ZINC000541000201   -0.0500
     32 H32        -3.1774    5.3782   53.1835 H       1  ZINC000541000201    0.1000
     33 H33        -1.9723    4.0704   53.1086 H       1  ZINC000541000201    0.0600
     34 H34        -1.8131    5.4894   52.0458 H       1  ZINC000541000201    0.0600
     35 H35        -4.3264    0.9143   50.3554 H       1  ZINC000541000201    0.4100
     36 H36        -7.8390    3.3460   51.8140 H       1  ZINC000541000201    0.1600
     37 H37        -9.5994    1.9334   52.8400 H       1  ZINC000541000201    0.1500
     38 H38       -10.3032    0.7986   54.0789 H       1  ZINC000541000201    0.1000
     39 H39       -11.4229    1.4958   52.0624 H       1  ZINC000541000201    0.0700
     40 H40       -11.8597   -0.1889   51.6247 H       1  ZINC000541000201    0.0800
     41 H41       -13.0058    1.5527   53.8762 H       1  ZINC000541000201    0.0700
     42 H42       -13.8961    0.5971   52.6498 H       1  ZINC000541000201    0.0700
     43 H43       -13.3593   -0.3399   55.2013 H       1  ZINC000541000201    0.0700
     44 H44       -13.5520   -1.4120   53.7855 H       1  ZINC000541000201    0.0700
     45 H45       -11.3562   -2.0242   53.9501 H       1  ZINC000541000201    0.0800
     46 H46       -11.1634   -0.9521   55.3658 H       1  ZINC000541000201    0.0700
     47 H47        -5.8747   -0.2561   50.5416 H       1  ZINC000541000201    0.1600
     48 H48        -2.4866    0.2327   50.3347 H       1  ZINC000541000201    0.1300
     49 H49        -0.9465   -1.2664   49.1351 H       1  ZINC000541000201    0.1400
     50 H50         2.1527   -1.1157   46.6394 H       1  ZINC000541000201    0.1900
     51 H51        -0.7082    1.5534   45.9324 H       1  ZINC000541000201    0.1400
     52 H52        -2.2528    3.0446   47.1362 H       1  ZINC000541000201    0.1400
@<TRIPOS>BOND
     1     1     2    1
     2     1    32    1
     3     1    33    1
     4     1    34    1
     5     2     3    1
     6     3     4    2
     7     3     5    1
     8     5     6    1
     9     5     7    1
    10     5    22    1
    11     7     8   am
    12     7    35    1
    13     8     9    2
    14     8    10    1
    15    10    21   ar
    16    10    11   ar
    17    11    12   ar
    18    11    36    1
    19    12    13   ar
    20    12    37    1
    21    13    14    1
    22    13    20   ar
    23    14    15    1
    24    15    19    1
    25    15    16    1
    26    15    38    1
    27    16    17    1
    28    16    39    1
    29    16    40    1
    30    17    18    1
    31    17    41    1
    32    17    42    1
    33    18    19    1
    34    18    43    1
    35    18    44    1
    36    19    45    1
    37    19    46    1
    38    20    21   ar
    39    21    47    1
    40    22    31   ar
    41    22    23   ar
    42    23    24   ar
    43    23    48    1
    44    24    25   ar
    45    24    49    1
    46    25    26    1
    47    25    30   ar
    48    26    27    1
    49    27    28    1
    50    27    29    1
    51    27    50    1
    52    30    31   ar
    53    30    51    1
    54    31    52    1
@<TRIPOS>SUBSTRUCTURE
     1 ZINC000541000201        1 TEMP              0 ****  ****    0 ROOT


##########                                Name:    ZINC000409064708
##########                DOCK_Rotatable_Bonds:                   8
##########                         Heavy_Atoms:                  29
##########                    Molecular_Weight:             415.442
##########                DOCK_Rotatable_Bonds:                   8
##########                       Formal_Charge:                0.03
##########                     HBond_Acceptors:                   8
##########                        HBond_Donors:                   0
##########                         Heavy_Atoms:                  29
##########                          Grid_Score:          -31.877335
##########                     Grid_vdw_energy:          -29.341963
##########                      Grid_es_energy:           -2.535372
##########           Internal_energy_repulsive:           21.852482

@<TRIPOS>MOLECULE
ZINC000409064708
 47 49 1 0 0
SMALL
USER_CHARGES


@<TRIPOS>ATOM
      1 C1        -12.7240   -1.3314   60.9382 C.3     1  ZINC000409064708    0.0400
      2 O2        -13.8452   -0.8126   60.1752 O.3     1  ZINC000409064708   -0.3500
      3 C3        -14.5067   -1.6825   59.3961 C.2     1  ZINC000409064708    0.4600
      4 O4        -15.6982   -1.5636   59.2340 O.2     1  ZINC000409064708   -0.4900
      5 C5        -13.7634   -2.8077   58.7233 C.3     1  ZINC000409064708    0.1400
      6 H6        -13.1763   -3.3498   59.4646 H       1  ZINC000409064708    0.1500
      7 C7        -14.7650   -3.7614   58.0691 C.3     1  ZINC000409064708   -0.1600
      8 N8        -12.8705   -2.2595   57.6992 N.am    1  ZINC000409064708   -0.5600
      9 C9        -11.5846   -2.6269   57.6597 C.2     1  ZINC000409064708    0.5400
     10 O10       -11.0302   -3.4057   58.4119 O.2     1  ZINC000409064708   -0.4200
     11 S11       -10.8437   -1.7628   56.3013 S.3     1  ZINC000409064708   -0.0100
     12 C12       -12.3371   -0.9241   55.8358 C.2     1  ZINC000409064708   -0.2400
     13 C13       -12.5190   -0.0470   54.8163 C.2     1  ZINC000409064708    0.0900
     14 C14       -11.3931    0.3067   53.9424 C.ar    1  ZINC000409064708   -0.1400
     15 C15       -10.7219    1.5230   54.1187 C.ar    1  ZINC000409064708    0.0000
     16 C16        -9.6670    1.8495   53.2965 C.ar    1  ZINC000409064708   -0.1600
     17 C17        -9.2683    0.9744   52.2925 C.ar    1  ZINC000409064708    0.1600
     18 O18        -8.2274    1.3014   51.4846 O.3     1  ZINC000409064708   -0.3000
     19 C19        -7.4447    2.4360   51.8619 C.3     1  ZINC000409064708    0.1000
     20 C20        -6.2894    2.5895   50.9067 C.ar    1  ZINC000409064708   -0.0700
     21 C21        -6.4189    3.3922   49.7890 C.ar    1  ZINC000409064708   -0.1000
     22 C22        -5.3597    3.5339   48.9117 C.ar    1  ZINC000409064708   -0.0900
     23 C23        -4.1701    2.8732   49.1515 C.ar    1  ZINC000409064708   -0.1400
     24 C24        -4.0389    2.0691   50.2713 C.ar    1  ZINC000409064708    0.1000
     25 F25        -2.8762    1.4225   50.5069 F       1  ZINC000409064708   -0.1400
     26 C26        -5.0984    1.9321   51.1518 C.ar    1  ZINC000409064708   -0.1300
     27 C27        -9.9311   -0.2342   52.1130 C.ar    1  ZINC000409064708   -0.2200
     28 C28       -10.9832   -0.5737   52.9334 C.ar    1  ZINC000409064708   -0.0400
     29 C29       -13.3310   -1.4020   56.8038 C.2     1  ZINC000409064708    0.5600
     30 O30       -14.4903   -1.0317   56.7881 O.2     1  ZINC000409064708   -0.4600
     31 H31       -13.0731   -2.1176   61.6079 H       1  ZINC000409064708    0.0700
     32 H32       -11.9782   -1.7397   60.2563 H       1  ZINC000409064708    0.0700
     33 H33       -12.2793   -0.5267   61.5235 H       1  ZINC000409064708    0.1100
     34 H34       -15.4292   -4.1693   58.8310 H       1  ZINC000409064708    0.1000
     35 H35       -15.3521   -3.2193   57.3277 H       1  ZINC000409064708    0.0800
     36 H36       -14.2274   -4.5751   57.5824 H       1  ZINC000409064708    0.0800
     37 H37       -13.4917    0.3910   54.6477 H       1  ZINC000409064708    0.1600
     38 H38       -11.0313    2.2037   54.8978 H       1  ZINC000409064708    0.1300
     39 H39        -9.1486    2.7871   53.4315 H       1  ZINC000409064708    0.1400
     40 H40        -8.0646    3.3319   51.8294 H       1  ZINC000409064708    0.0800
     41 H41        -7.0636    2.2942   52.8733 H       1  ZINC000409064708    0.0800
     42 H42        -7.3485    3.9087   49.6005 H       1  ZINC000409064708    0.1300
     43 H43        -5.4622    4.1610   48.0384 H       1  ZINC000409064708    0.1400
     44 H44        -3.3430    2.9834   48.4658 H       1  ZINC000409064708    0.1400
     45 H45        -4.9971    1.3055   52.0256 H       1  ZINC000409064708    0.1400
     46 H46        -9.6174   -0.9101   51.3313 H       1  ZINC000409064708    0.1300
     47 H47       -11.4974   -1.5130   52.7932 H       1  ZINC000409064708    0.1300
@<TRIPOS>BOND
     1     1     2    1
     2     1    31    1
     3     1    32    1
     4     1    33    1
     5     2     3    1
     6     3     4    2
     7     3     5    1
     8     5     6    1
     9     5     7    1
    10     5     8    1
    11     7    34    1
    12     7    35    1
    13     7    36    1
    14     8    29   am
    15     8     9   am
    16     9    10    2
    17     9    11    1
    18    11    12    1
    19    12    13    2
    20    12    29    1
    21    13    14    1
    22    13    37    1
    23    14    28   ar
    24    14    15   ar
    25    15    16   ar
    26    15    38    1
    27    16    17   ar
    28    16    39    1
    29    17    18    1
    30    17    27   ar
    31    18    19    1
    32    19    20    1
    33    19    40    1
    34    19    41    1
    35    20    26   ar
    36    20    21   ar
    37    21    22   ar
    38    21    42    1
    39    22    23   ar
    40    22    43    1
    41    23    24   ar
    42    23    44    1
    43    24    25    1
    44    24    26   ar
    45    26    45    1
    46    27    28   ar
    47    27    46    1
    48    28    47    1
    49    29    30    2
@<TRIPOS>SUBSTRUCTURE
     1 ZINC000409064708        1 TEMP              0 ****  ****    0 ROOT


##########                                Name:    ZINC000179496896
##########                DOCK_Rotatable_Bonds:                   8
##########                         Heavy_Atoms:                  27
##########                    Molecular_Weight:             396.504
##########                DOCK_Rotatable_Bonds:                   8
##########                       Formal_Charge:          0.00999944
##########                     HBond_Acceptors:                   8
##########                        HBond_Donors:                   1
##########                         Heavy_Atoms:                  27
##########                          Grid_Score:          -31.868753
##########                     Grid_vdw_energy:          -31.661631
##########                      Grid_es_energy:           -0.207122
##########           Internal_energy_repulsive:           23.898073

@<TRIPOS>MOLECULE
ZINC000179496896
 53 55 1 0 0
SMALL
USER_CHARGES


@<TRIPOS>ATOM
      1 C1        -13.1550    2.3844   51.0788 C.3     1  ZINC000179496896   -0.1500
      2 C2        -13.1497    2.2091   52.5987 C.3     1  ZINC000179496896   -0.1100
      3 C3        -14.5432    1.7864   53.0682 C.3     1  ZINC000179496896   -0.1400
      4 C4        -12.1332    1.1326   52.9845 C.3     1  ZINC000179496896    0.1200
      5 N5        -10.7924    1.5579   52.5751 N.pl3   1  ZINC000179496896   -0.3300
      6 N6        -10.3309    2.8782   52.5319 N.2     1  ZINC000179496896   -0.2700
      7 C7         -9.0928    2.8799   52.1213 C.2     1  ZINC000179496896    0.0800
      8 C8         -8.7096    1.5410   51.8827 C.2     1  ZINC000179496896   -0.2500
      9 C9         -7.3925    1.0790   51.4081 C.2     1  ZINC000179496896    0.5900
     10 O10        -7.1214   -0.1064   51.4255 O.2     1  ZINC000179496896   -0.5300
     11 N11        -6.4888    1.9703   50.9547 N.am    1  ZINC000179496896   -0.7100
     12 C12        -5.1794    1.5113   50.4847 C.3     1  ZINC000179496896    0.1300
     13 C13        -4.2003    2.6869   50.4751 C.3     1  ZINC000179496896    0.0700
     14 H14        -4.4265    3.3413   49.6333 H       1  ZINC000179496896    0.0900
     15 C15        -4.3332    3.4721   51.7815 C.3     1  ZINC000179496896   -0.1900
     16 N16        -2.8276    2.1800   50.3460 N.3     1  ZINC000179496896   -0.5300
     17 C17        -1.9117    3.2443   49.9116 C.3     1  ZINC000179496896    0.0600
     18 C18        -0.4672    2.8007   50.1732 C.3     1  ZINC000179496896   -0.0400
     19 C19        -0.2972    1.4027   49.6169 C.2     1  ZINC000179496896   -0.1700
     20 C20        -1.3234    0.5960   49.2809 C.2     1  ZINC000179496896   -0.1100
     21 C21        -0.9226   -0.6411   48.7896 C.2     1  ZINC000179496896   -0.1200
     22 C22         0.3914   -0.8380   48.7278 C.2     1  ZINC000179496896   -0.2200
     23 S23         1.2303    0.5919   49.3125 S.3     1  ZINC000179496896    0.1000
     24 C24        -2.7754    1.0271   49.4370 C.3     1  ZINC000179496896    0.1200
     25 C25        -9.7974    0.7460   52.1836 C.2     1  ZINC000179496896    0.0700
     26 C26        -9.8596   -0.7562   52.0814 C.3     1  ZINC000179496896    0.3400
     27 F27       -10.2317   -1.2929   53.3186 F       1  ZINC000179496896   -0.1500
     28 F28       -10.8021   -1.1191   51.1132 F       1  ZINC000179496896   -0.2000
     29 H29       -13.8792    3.1512   50.8040 H       1  ZINC000179496896    0.0600
     30 H30       -12.1622    2.6855   50.7444 H       1  ZINC000179496896    0.0600
     31 H31       -13.4273    1.4412   50.6053 H       1  ZINC000179496896    0.0600
     32 H32       -12.8774    3.1524   53.0723 H       1  ZINC000179496896    0.0800
     33 H33       -14.8154    0.8432   52.5947 H       1  ZINC000179496896    0.0600
     34 H34       -14.5394    1.6616   54.1511 H       1  ZINC000179496896    0.0600
     35 H35       -15.2674    2.5533   52.7935 H       1  ZINC000179496896    0.0700
     36 H36       -12.1533    0.9841   54.0642 H       1  ZINC000179496896    0.1000
     37 H37       -12.3865    0.1978   52.4843 H       1  ZINC000179496896    0.1000
     38 H38        -8.4698    3.7518   51.9869 H       1  ZINC000179496896    0.2000
     39 H39        -6.7055    2.9157   50.9397 H       1  ZINC000179496896    0.4100
     40 H40        -4.8065    0.7333   51.1510 H       1  ZINC000179496896    0.0700
     41 H41        -5.2756    1.1102   49.4758 H       1  ZINC000179496896    0.0700
     42 H42        -3.6357    4.3096   51.7747 H       1  ZINC000179496896    0.0600
     43 H43        -5.3518    3.8482   51.8773 H       1  ZINC000179496896    0.0700
     44 H44        -4.1069    2.8177   52.6233 H       1  ZINC000179496896    0.0600
     45 H45        -2.0485    3.4306   48.8464 H       1  ZINC000179496896    0.0400
     46 H46        -2.1201    4.1557   50.4719 H       1  ZINC000179496896    0.0900
     47 H47         0.2230    3.4815   49.6751 H       1  ZINC000179496896    0.0800
     48 H48        -0.2718    2.7965   51.2455 H       1  ZINC000179496896    0.0900
     49 H49        -1.6321   -1.3936   48.4785 H       1  ZINC000179496896    0.1400
     50 H50         0.8699   -1.7388   48.3726 H       1  ZINC000179496896    0.1600
     51 H51        -3.3581    0.2057   49.8541 H       1  ZINC000179496896    0.0900
     52 H52        -3.1798    1.3091   48.4649 H       1  ZINC000179496896    0.0500
     53 H53        -8.8805   -1.1421   51.7977 H       1  ZINC000179496896    0.1300
@<TRIPOS>BOND
     1     1     2    1
     2     1    29    1
     3     1    30    1
     4     1    31    1
     5     2     3    1
     6     2     4    1
     7     2    32    1
     8     3    33    1
     9     3    34    1
    10     3    35    1
    11     4     5    1
    12     4    36    1
    13     4    37    1
    14     5    25    1
    15     5     6    1
    16     6     7    2
    17     7     8    1
    18     7    38    1
    19     8     9    1
    20     8    25    2
    21     9    10    2
    22     9    11   am
    23    11    12    1
    24    11    39    1
    25    12    13    1
    26    12    40    1
    27    12    41    1
    28    13    14    1
    29    13    15    1
    30    13    16    1
    31    15    42    1
    32    15    43    1
    33    15    44    1
    34    16    24    1
    35    16    17    1
    36    17    18    1
    37    17    45    1
    38    17    46    1
    39    18    19    1
    40    18    47    1
    41    18    48    1
    42    19    23    1
    43    19    20    2
    44    20    21    1
    45    20    24    1
    46    21    22    2
    47    21    49    1
    48    22    23    1
    49    22    50    1
    50    24    51    1
    51    24    52    1
    52    25    26    1
    53    26    27    1
    54    26    28    1
    55    26    53    1
@<TRIPOS>SUBSTRUCTURE
     1 ZINC000179496896        1 TEMP              0 ****  ****    0 ROOT


##########                                Name:    ZINC000508782983
##########                DOCK_Rotatable_Bonds:                   9
##########                         Heavy_Atoms:                  27
##########                    Molecular_Weight:             373.458
##########                DOCK_Rotatable_Bonds:                   9
##########                       Formal_Charge:          -0.0200006
##########                     HBond_Acceptors:                   9
##########                        HBond_Donors:                   2
##########                         Heavy_Atoms:                  27
##########                          Grid_Score:          -31.852390
##########                     Grid_vdw_energy:          -32.346867
##########                      Grid_es_energy:            0.494477
##########           Internal_energy_repulsive:           19.547541

@<TRIPOS>MOLECULE
ZINC000508782983
 54 56 1 0 0
SMALL
USER_CHARGES


@<TRIPOS>ATOM
      1 C1          2.6740   -0.2478   47.5621 C.3     1  ZINC000508782983   -0.1500
      2 C2          1.1551   -0.3197   47.7314 C.3     1  ZINC000508782983   -0.1100
      3 C3          0.7812    0.0862   49.1584 C.3     1  ZINC000508782983   -0.1500
      4 C4          0.4857    0.6324   46.7384 C.3     1  ZINC000508782983    0.1000
      5 N5          0.3601    1.9605   47.3440 N.pl3   1  ZINC000508782983   -0.4400
      6 C6          1.3718    2.8604   47.5451 C.2     1  ZINC000508782983   -0.0400
      7 C7          0.8201    3.9439   48.1241 C.2     1  ZINC000508782983   -0.0300
      8 N8         -0.4926    3.7120   48.2723 N.2     1  ZINC000508782983   -0.4700
      9 C9         -0.7762    2.5279   47.8027 C.2     1  ZINC000508782983    0.1700
     10 C10        -2.1436    1.8948   47.7841 C.3     1  ZINC000508782983    0.2100
     11 N11        -3.0263    2.6118   48.7078 N.am    1  ZINC000508782983   -0.6900
     12 C12        -3.2619    2.1141   49.9379 C.2     1  ZINC000508782983    0.5100
     13 O13        -2.7417    1.0728   50.2809 O.2     1  ZINC000508782983   -0.5100
     14 C14        -4.1638    2.8446   50.8795 C.2     1  ZINC000508782983    0.5100
     15 O15        -3.7247    3.7447   51.5646 O.2     1  ZINC000508782983   -0.5200
     16 N16        -5.4647    2.5035   50.9676 N.am    1  ZINC000508782983   -0.5800
     17 C17        -6.0158    1.4116   50.1509 C.3     1  ZINC000508782983    0.0800
     18 C18        -6.7691    0.4466   51.0726 C.3     1  ZINC000508782983    0.0400
     19 N19        -7.7593    1.1963   51.8571 N.3     1  ZINC000508782983   -0.5400
     20 C20        -8.6190    0.2871   52.6266 C.3     1  ZINC000508782983    0.1400
     21 C21       -10.0196    0.3304   52.0718 C.2     1  ZINC000508782983    0.2100
     22 N22       -10.8479    1.3336   52.1750 N.2     1  ZINC000508782983   -0.4900
     23 C23       -12.0001    1.0204   51.5642 C.2     1  ZINC000508782983   -0.0300
     24 C24       -11.8815   -0.2240   51.0635 C.2     1  ZINC000508782983   -0.0500
     25 N25       -10.6233   -0.6602   51.3806 N.pl3   1  ZINC000508782983   -0.5600
     26 C26        -7.1100    2.1775   52.7368 C.3     1  ZINC000508782983    0.0400
     27 C27        -6.3694    3.2094   51.8877 C.3     1  ZINC000508782983    0.1100
     28 H28         3.1509   -0.9261   48.2697 H       1  ZINC000508782983    0.0700
     29 H29         2.9404   -0.5370   46.5455 H       1  ZINC000508782983    0.0600
     30 H30         3.0127    0.7709   47.7507 H       1  ZINC000508782983    0.0600
     31 H31         0.8163   -1.3384   47.5429 H       1  ZINC000508782983    0.0800
     32 H32         1.1868    1.0749   49.3730 H       1  ZINC000508782983    0.0600
     33 H33        -0.3041    0.1095   49.2570 H       1  ZINC000508782983    0.0600
     34 H34         1.1944   -0.6366   49.8619 H       1  ZINC000508782983    0.0600
     35 H35         1.0920    0.7008   45.8353 H       1  ZINC000508782983    0.1000
     36 H36        -0.5044    0.2543   46.4836 H       1  ZINC000508782983    0.0900
     37 H37         2.4125    2.7269   47.2891 H       1  ZINC000508782983    0.1800
     38 H38         1.3430    4.8422   48.4174 H       1  ZINC000508782983    0.1700
     39 H39        -2.5541    1.9462   46.7757 H       1  ZINC000508782983    0.0900
     40 H40        -2.0656    0.8521   48.0920 H       1  ZINC000508782983    0.1100
     41 H41        -3.4412    3.4448   48.4340 H       1  ZINC000508782983    0.4200
     42 H42        -6.7020    1.8199   49.4088 H       1  ZINC000508782983    0.0800
     43 H43        -5.2044    0.8824   49.6513 H       1  ZINC000508782983    0.1400
     44 H44        -7.2767   -0.3083   50.4722 H       1  ZINC000508782983    0.0900
     45 H45        -6.0629   -0.0385   51.7465 H       1  ZINC000508782983    0.0400
     46 H46        -8.2307   -0.7287   52.5538 H       1  ZINC000508782983    0.0900
     47 H47        -8.6324    0.5970   53.6715 H       1  ZINC000508782983    0.0700
     48 H48       -12.8706    1.6551   51.4874 H       1  ZINC000508782983    0.1700
     49 H49       -12.6330   -0.7712   50.5137 H       1  ZINC000508782983    0.1800
     50 H50       -10.2392   -1.5220   51.1557 H       1  ZINC000508782983    0.4200
     51 H51        -7.8650    2.6779   53.3432 H       1  ZINC000508782983    0.1100
     52 H52        -6.3992    1.6683   53.3874 H       1  ZINC000508782983    0.0400
     53 H53        -5.7933    3.8706   52.5349 H       1  ZINC000508782983    0.1000
     54 H54        -7.0875    3.7920   51.3104 H       1  ZINC000508782983    0.0800
@<TRIPOS>BOND
     1     1     2    1
     2     1    28    1
     3     1    29    1
     4     1    30    1
     5     2     3    1
     6     2     4    1
     7     2    31    1
     8     3    32    1
     9     3    33    1
    10     3    34    1
    11     4     5    1
    12     4    35    1
    13     4    36    1
    14     5     9    1
    15     5     6    1
    16     6     7    2
    17     6    37    1
    18     7     8    1
    19     7    38    1
    20     8     9    2
    21     9    10    1
    22    10    11    1
    23    10    39    1
    24    10    40    1
    25    11    12   am
    26    11    41    1
    27    12    13    2
    28    12    14    1
    29    14    15    2
    30    14    16   am
    31    16    27    1
    32    16    17    1
    33    17    18    1
    34    17    42    1
    35    17    43    1
    36    18    19    1
    37    18    44    1
    38    18    45    1
    39    19    20    1
    40    19    26    1
    41    20    21    1
    42    20    46    1
    43    20    47    1
    44    21    25    1
    45    21    22    2
    46    22    23    1
    47    23    24    2
    48    23    48    1
    49    24    25    1
    50    24    49    1
    51    25    50    1
    52    26    27    1
    53    26    51    1
    54    26    52    1
    55    27    53    1
    56    27    54    1
@<TRIPOS>SUBSTRUCTURE
     1 ZINC000508782983        1 TEMP              0 ****  ****    0 ROOT


##########                                Name:    ZINC000866034032
##########                DOCK_Rotatable_Bonds:                   4
##########                         Heavy_Atoms:                  23
##########                    Molecular_Weight:             383.242
##########                DOCK_Rotatable_Bonds:                   4
##########                       Formal_Charge:           0.0199999
##########                     HBond_Acceptors:                   6
##########                        HBond_Donors:                   1
##########                         Heavy_Atoms:                  23
##########                          Grid_Score:          -31.850706
##########                     Grid_vdw_energy:          -31.184937
##########                      Grid_es_energy:           -0.665769
##########           Internal_energy_repulsive:           13.719776

@<TRIPOS>MOLECULE
ZINC000866034032
 42 44 1 0 0
SMALL
USER_CHARGES


@<TRIPOS>ATOM
      1 C1         -0.7126    1.8909   45.2796 C.3     1  ZINC000866034032   -0.1300
      2 C2         -0.4687    1.8830   46.7901 C.3     1  ZINC000866034032   -0.0800
      3 C3          0.0772    3.2147   47.3093 C.3     1  ZINC000866034032   -0.1300
      4 C4         -1.6592    1.3480   47.6010 C.3     1  ZINC000866034032    0.1400
      5 H5         -2.6156    1.4483   47.0879 H       1  ZINC000866034032    0.1100
      6 N6         -1.6992    1.8452   48.9785 N.am    1  ZINC000866034032   -0.7000
      7 C7         -2.7708    2.5368   49.4143 C.2     1  ZINC000866034032    0.5100
      8 O8         -3.7011    2.7489   48.6658 O.2     1  ZINC000866034032   -0.5300
      9 C9         -2.8128    3.0468   50.8318 C.3     1  ZINC000866034032   -0.1100
     10 C10        -4.2269    2.9789   51.3484 C.ar    1  ZINC000866034032   -0.0500
     11 C11        -4.7788    4.0682   51.9961 C.ar    1  ZINC000866034032   -0.0500
     12 C12        -6.0758    4.0062   52.4705 C.ar    1  ZINC000866034032   -0.0900
     13 C13        -6.8213    2.8544   52.2966 C.ar    1  ZINC000866034032   -0.0500
     14 Br14       -8.5956    2.7693   52.9448 Br      1  ZINC000866034032    0.0200
     15 C15        -6.2686    1.7646   51.6479 C.ar    1  ZINC000866034032   -0.0200
     16 N16        -7.0660    0.5318   51.4610 N.pl3   1  ZINC000866034032    0.0200
     17 O17        -6.5793   -0.4276   50.8898 O.2     1  ZINC000866034032   -0.1600
     18 O18        -8.2089    0.4767   51.8784 O.2     1  ZINC000866034032   -0.1300
     19 C19        -4.9737    1.8292   51.1693 C.ar    1  ZINC000866034032   -0.0300
     20 C20        -1.0358   -0.0512   47.4696 C.3     1  ZINC000866034032   -0.1500
     21 H21        -1.3948   -0.6655   46.6439 H       1  ZINC000866034032    0.1200
     22 C22        -0.9032   -0.7789   48.8260 C.3     1  ZINC000866034032   -0.1400
     23 C23         0.5224   -0.4274   49.3050 C.3     1  ZINC000866034032    0.0500
     24 O24         0.8428    0.8099   48.6328 O.3     1  ZINC000866034032   -0.3600
     25 C25         0.3266    0.6626   47.2765 C.3     1  ZINC000866034032    0.0600
     26 H26         1.0222    0.2148   46.5668 H       1  ZINC000866034032    0.1000
     27 H27        -0.9531    0.8818   44.9451 H       1  ZINC000866034032    0.0600
     28 H28        -1.5434    2.5578   45.0493 H       1  ZINC000866034032    0.0700
     29 H29         0.1851    2.2388   44.7685 H       1  ZINC000866034032    0.0700
     30 H30        -0.7013    3.9751   47.2481 H       1  ZINC000866034032    0.0600
     31 H31         0.3913    3.0989   48.3467 H       1  ZINC000866034032    0.0600
     32 H32         0.9305    3.5187   46.7030 H       1  ZINC000866034032    0.0600
     33 H33        -0.9546    1.6767   49.5768 H       1  ZINC000866034032    0.4100
     34 H34        -2.1672    2.4316   51.4586 H       1  ZINC000866034032    0.1100
     35 H35        -2.4660    4.0799   50.8568 H       1  ZINC000866034032    0.1200
     36 H36        -4.1965    4.9676   52.1319 H       1  ZINC000866034032    0.1500
     37 H37        -6.5067    4.8571   52.9773 H       1  ZINC000866034032    0.1600
     38 H38        -4.5423    0.9787   50.6624 H       1  ZINC000866034032    0.1600
     39 H39        -1.6457   -0.4077   49.5325 H       1  ZINC000866034032    0.0800
     40 H40        -1.0066   -1.8559   48.6931 H       1  ZINC000866034032    0.0800
     41 H41         0.5357   -0.2864   50.3857 H       1  ZINC000866034032    0.0900
     42 H42         1.2239   -1.2096   49.0147 H       1  ZINC000866034032    0.0600
@<TRIPOS>BOND
     1     1     2    1
     2     1    27    1
     3     1    28    1
     4     1    29    1
     5     2    25    1
     6     2     3    1
     7     2     4    1
     8     3    30    1
     9     3    31    1
    10     3    32    1
    11     4     5    1
    12     4     6    1
    13     4    20    1
    14     6     7   am
    15     6    33    1
    16     7     8    2
    17     7     9    1
    18     9    10    1
    19     9    34    1
    20     9    35    1
    21    10    19   ar
    22    10    11   ar
    23    11    12   ar
    24    11    36    1
    25    12    13   ar
    26    12    37    1
    27    13    14    1
    28    13    15   ar
    29    15    16    1
    30    15    19   ar
    31    16    17    2
    32    16    18    2
    33    19    38    1
    34    20    21    1
    35    20    25    1
    36    20    22    1
    37    22    23    1
    38    22    39    1
    39    22    40    1
    40    23    24    1
    41    23    41    1
    42    23    42    1
    43    24    25    1
    44    25    26    1
@<TRIPOS>SUBSTRUCTURE
     1 ZINC000866034032        1 TEMP              0 ****  ****    0 ROOT


##########                                Name:    ZINC000425987417
##########                DOCK_Rotatable_Bonds:                   9
##########                         Heavy_Atoms:                  25
##########                    Molecular_Weight:             357.419
##########                DOCK_Rotatable_Bonds:                   9
##########                       Formal_Charge:         -0.00999992
##########                     HBond_Acceptors:                   7
##########                        HBond_Donors:                   1
##########                         Heavy_Atoms:                  25
##########                          Grid_Score:          -31.823341
##########                     Grid_vdw_energy:          -30.997349
##########                      Grid_es_energy:           -0.825993
##########           Internal_energy_repulsive:           14.569267

@<TRIPOS>MOLECULE
ZINC000425987417
 51 52 1 0 0
SMALL
USER_CHARGES


@<TRIPOS>ATOM
      1 C1         -5.2529    3.4173   53.4770 C.3     1  ZINC000425987417   -0.1500
      2 C2         -5.7897    2.3563   52.5141 C.3     1  ZINC000425987417    0.0400
      3 N3         -5.5987    2.8096   51.1300 N.3     1  ZINC000425987417   -0.5300
      4 C4         -4.6653    1.9311   50.4123 C.3     1  ZINC000425987417    0.0400
      5 C5         -3.2288    2.3812   50.6856 C.3     1  ZINC000425987417    0.1400
      6 N6         -2.3121    1.6471   49.8098 N.am    1  ZINC000425987417   -0.7500
      7 C7         -1.0102    1.9920   49.7562 C.2     1  ZINC000425987417    0.7200
      8 O8         -0.5967    2.9122   50.4348 O.2     1  ZINC000425987417   -0.5800
      9 N9         -0.1669    1.3167   48.9504 N.am    1  ZINC000425987417   -0.6200
     10 C10         1.2604    1.6684   48.8690 C.3     1  ZINC000425987417    0.1300
     11 C11         1.5444    2.1531   47.4481 C.3     1  ZINC000425987417   -0.1000
     12 C12         0.9559    1.2097   46.4323 C.ar    1  ZINC000425987417   -0.0600
     13 C13         1.4666    1.2531   45.1410 C.ar    1  ZINC000425987417   -0.1200
     14 C14         0.9656    0.4226   44.1599 C.ar    1  ZINC000425987417   -0.1100
     15 C15        -0.0544   -0.4602   44.4613 C.ar    1  ZINC000425987417   -0.1200
     16 C16        -0.5612   -0.5078   45.7440 C.ar    1  ZINC000425987417   -0.1100
     17 C17        -0.0541    0.3232   46.7332 C.ar    1  ZINC000425987417   -0.0900
     18 C18        -0.6332    0.1980   48.1241 C.3     1  ZINC000425987417    0.1800
     19 H19        -1.7215    0.2182   48.0671 H       1  ZINC000425987417    0.0900
     20 C20        -0.1804   -1.1242   48.7470 C.3     1  ZINC000425987417   -0.1600
     21 C21        -6.8836    2.9015   50.4240 C.3     1  ZINC000425987417    0.0500
     22 C22        -6.8294    4.0489   49.4133 C.3     1  ZINC000425987417   -0.1600
     23 C23        -6.7897    5.3842   50.1592 C.3     1  ZINC000425987417    0.4500
     24 F24        -5.6293    5.4490   50.9380 F       1  ZINC000425987417   -0.1800
     25 F25        -6.7904    6.4347   49.2353 F       1  ZINC000425987417   -0.1800
     26 F26        -7.9129    5.4899   50.9864 F       1  ZINC000425987417   -0.1900
     27 H27        -5.8214    4.3393   53.3553 H       1  ZINC000425987417    0.0500
     28 H28        -5.3529    3.0613   54.5023 H       1  ZINC000425987417    0.0600
     29 H29        -4.2019    3.6071   53.2592 H       1  ZINC000425987417    0.0700
     30 H30        -5.2517    1.4209   52.6676 H       1  ZINC000425987417    0.0800
     31 H31        -6.8519    2.1995   52.7018 H       1  ZINC000425987417    0.0400
     32 H32        -4.7960    0.9047   50.7552 H       1  ZINC000425987417    0.0500
     33 H33        -4.8657    1.9849   49.3422 H       1  ZINC000425987417    0.0800
     34 H34        -3.1397    3.4499   50.4910 H       1  ZINC000425987417    0.0800
     35 H35        -2.9766    2.1792   51.7266 H       1  ZINC000425987417    0.0700
     36 H36        -2.6421    0.9130   49.2684 H       1  ZINC000425987417    0.3900
     37 H37         1.4858    2.4621   49.5813 H       1  ZINC000425987417    0.1000
     38 H38         1.8694    0.7914   49.0882 H       1  ZINC000425987417    0.0700
     39 H39         1.1085    3.1429   47.3131 H       1  ZINC000425987417    0.0800
     40 H40         2.6225    2.2136   47.2988 H       1  ZINC000425987417    0.0900
     41 H41         2.2624    1.9433   44.9030 H       1  ZINC000425987417    0.1200
     42 H42         1.3691    0.4625   43.1589 H       1  ZINC000425987417    0.1200
     43 H43        -0.4532   -1.1097   43.6961 H       1  ZINC000425987417    0.1200
     44 H44        -1.3586   -1.1969   45.9798 H       1  ZINC000425987417    0.1200
     45 H45         0.9078   -1.1456   48.8029 H       1  ZINC000425987417    0.0700
     46 H46        -0.5977   -1.2150   49.7499 H       1  ZINC000425987417    0.0600
     47 H47        -0.5291   -1.9537   48.1319 H       1  ZINC000425987417    0.0700
     48 H48        -7.0785    1.9654   49.9007 H       1  ZINC000425987417    0.0500
     49 H49        -7.6809    3.0884   51.1434 H       1  ZINC000425987417    0.0900
     50 H50        -5.9349    3.9495   48.7984 H       1  ZINC000425987417    0.1200
     51 H51        -7.7135    4.0144   48.7768 H       1  ZINC000425987417    0.1100
@<TRIPOS>BOND
     1     1     2    1
     2     1    27    1
     3     1    28    1
     4     1    29    1
     5     2     3    1
     6     2    30    1
     7     2    31    1
     8     3     4    1
     9     3    21    1
    10     4     5    1
    11     4    32    1
    12     4    33    1
    13     5     6    1
    14     5    34    1
    15     5    35    1
    16     6     7   am
    17     6    36    1
    18     7     8    2
    19     7     9   am
    20     9    18    1
    21     9    10    1
    22    10    11    1
    23    10    37    1
    24    10    38    1
    25    11    12    1
    26    11    39    1
    27    11    40    1
    28    12    17   ar
    29    12    13   ar
    30    13    14   ar
    31    13    41    1
    32    14    15   ar
    33    14    42    1
    34    15    16   ar
    35    15    43    1
    36    16    17   ar
    37    16    44    1
    38    17    18    1
    39    18    19    1
    40    18    20    1
    41    20    45    1
    42    20    46    1
    43    20    47    1
    44    21    22    1
    45    21    48    1
    46    21    49    1
    47    22    23    1
    48    22    50    1
    49    22    51    1
    50    23    24    1
    51    23    25    1
    52    23    26    1
@<TRIPOS>SUBSTRUCTURE
     1 ZINC000425987417        1 TEMP              0 ****  ****    0 ROOT


##########                                Name:    ZINC000015179664
##########                DOCK_Rotatable_Bonds:                   8
##########                         Heavy_Atoms:                  25
##########                    Molecular_Weight:             361.422
##########                DOCK_Rotatable_Bonds:                   8
##########                       Formal_Charge:        -2.23517e-07
##########                     HBond_Acceptors:                   8
##########                        HBond_Donors:                   1
##########                         Heavy_Atoms:                  25
##########                          Grid_Score:          -31.791685
##########                     Grid_vdw_energy:          -30.951714
##########                      Grid_es_energy:           -0.839972
##########           Internal_energy_repulsive:           27.575029

@<TRIPOS>MOLECULE
ZINC000015179664
 44 45 1 0 0
SMALL
USER_CHARGES


@<TRIPOS>ATOM
      1 C1         -0.5998    3.8785   48.0012 C.3     1  ZINC000015179664   -0.1600
      2 C2         -0.4246    2.9066   49.1699 C.3     1  ZINC000015179664    0.1800
      3 H3          0.4638    3.1795   49.7393 H       1  ZINC000015179664    0.1200
      4 C4         -0.2701    1.5048   48.6388 C.ar    1  ZINC000015179664   -0.1000
      5 C5          0.0432    0.4702   49.4999 C.ar    1  ZINC000015179664   -0.0700
      6 C6          0.1849   -0.8159   49.0125 C.ar    1  ZINC000015179664   -0.1200
      7 C7          0.0129   -1.0669   47.6643 C.ar    1  ZINC000015179664   -0.0500
      8 C8         -0.3016   -0.0321   46.8031 C.ar    1  ZINC000015179664   -0.0400
      9 N9         -0.4854   -0.3008   45.3591 N.pl3   1  ZINC000015179664    0.0300
     10 O10        -0.3597   -1.4336   44.9297 O.2     1  ZINC000015179664   -0.1600
     11 O11        -0.7624    0.6110   44.6005 O.2     1  ZINC000015179664   -0.1500
     12 C12        -0.4475    1.2529   47.2909 C.ar    1  ZINC000015179664   -0.0400
     13 N13        -1.6015    2.9721   50.0400 N.am    1  ZINC000015179664   -0.6100
     14 C14        -1.4769    3.4955   51.4027 C.3     1  ZINC000015179664    0.0600
     15 C15        -2.7989    2.5511   49.5867 C.2     1  ZINC000015179664    0.5200
     16 O16        -2.9023    2.1192   48.4581 O.2     1  ZINC000015179664   -0.5200
     17 C17        -4.0091    2.6167   50.4823 C.3     1  ZINC000015179664   -0.1500
     18 C18        -5.2687    2.3417   49.6585 C.3     1  ZINC000015179664    0.1300
     19 N19        -6.4543    2.5651   50.4895 N.am    1  ZINC000015179664   -0.7300
     20 C20        -7.0496    1.5260   51.1077 C.2     1  ZINC000015179664    0.5800
     21 O21        -6.6035    0.4023   50.9744 O.2     1  ZINC000015179664   -0.5300
     22 C22        -8.2398    1.7509   51.9441 C.2     1  ZINC000015179664   -0.1500
     23 C23        -8.8688    0.7623   52.6344 C.2     1  ZINC000015179664   -0.2200
     24 S24       -10.2058    1.3792   53.4930 S.3     1  ZINC000015179664    0.1900
     25 C25        -9.9199    3.0112   52.9143 C.2     1  ZINC000015179664   -0.2300
     26 C26        -8.8559    3.0452   52.1207 C.2     1  ZINC000015179664   -0.0900
     27 H27         0.2758    3.8297   47.3538 H       1  ZINC000015179664    0.0800
     28 H28        -1.4883    3.6056   47.4318 H       1  ZINC000015179664    0.0600
     29 H29        -0.7116    4.8924   48.3854 H       1  ZINC000015179664    0.0700
     30 H30         0.1777    0.6662   50.5533 H       1  ZINC000015179664    0.1500
     31 H31         0.4306   -1.6243   49.6852 H       1  ZINC000015179664    0.1500
     32 H32         0.1242   -2.0714   47.2835 H       1  ZINC000015179664    0.1600
     33 H33        -0.6931    2.0613   46.6183 H       1  ZINC000015179664    0.1600
     34 H34        -1.6066    4.5776   51.3896 H       1  ZINC000015179664    0.0600
     35 H35        -2.2414    3.0454   52.0360 H       1  ZINC000015179664    0.0800
     36 H36        -0.4898    3.2525   51.7963 H       1  ZINC000015179664    0.0800
     37 H37        -3.9194    1.8684   51.2697 H       1  ZINC000015179664    0.1000
     38 H38        -4.0768    3.6084   50.9295 H       1  ZINC000015179664    0.1000
     39 H39        -5.2950    3.0127   48.7999 H       1  ZINC000015179664    0.0800
     40 H40        -5.2576    1.3083   49.3117 H       1  ZINC000015179664    0.0800
     41 H41        -6.8108    3.4611   50.5949 H       1  ZINC000015179664    0.4000
     42 H42        -8.5626   -0.2735   52.6381 H       1  ZINC000015179664    0.1700
     43 H43       -10.5231    3.8694   53.1711 H       1  ZINC000015179664    0.1700
     44 H44        -8.4930    3.9467   51.6496 H       1  ZINC000015179664    0.1600
@<TRIPOS>BOND
     1     1     2    1
     2     1    27    1
     3     1    28    1
     4     1    29    1
     5     2     3    1
     6     2     4    1
     7     2    13    1
     8     4    12   ar
     9     4     5   ar
    10     5     6   ar
    11     5    30    1
    12     6     7   ar
    13     6    31    1
    14     7     8   ar
    15     7    32    1
    16     8     9    1
    17     8    12   ar
    18     9    10    2
    19     9    11    2
    20    12    33    1
    21    13    14    1
    22    13    15   am
    23    14    34    1
    24    14    35    1
    25    14    36    1
    26    15    16    2
    27    15    17    1
    28    17    18    1
    29    17    37    1
    30    17    38    1
    31    18    19    1
    32    18    39    1
    33    18    40    1
    34    19    20   am
    35    19    41    1
    36    20    21    2
    37    20    22    1
    38    22    26    1
    39    22    23    2
    40    23    24    1
    41    23    42    1
    42    24    25    1
    43    25    26    2
    44    25    43    1
    45    26    44    1
@<TRIPOS>SUBSTRUCTURE
     1 ZINC000015179664        1 TEMP              0 ****  ****    0 ROOT


##########                                Name:    ZINC000291036115
##########                DOCK_Rotatable_Bonds:                   5
##########                         Heavy_Atoms:                  22
##########                    Molecular_Weight:             366.193
##########                DOCK_Rotatable_Bonds:                   5
##########                       Formal_Charge:                0.01
##########                     HBond_Acceptors:                   7
##########                        HBond_Donors:                   0
##########                         Heavy_Atoms:                  22
##########                          Grid_Score:          -31.779795
##########                     Grid_vdw_energy:          -30.721355
##########                      Grid_es_energy:           -1.058439
##########           Internal_energy_repulsive:            3.955101

@<TRIPOS>MOLECULE
ZINC000291036115
 35 37 1 0 0
SMALL
USER_CHARGES


@<TRIPOS>ATOM
      1 C1         -5.8471    3.3825   50.0990 C.3     1  <0>        -0.1500
      2 C2         -5.1714    2.0848   50.5466 C.3     1  <0>        -0.0400
      3 H3         -5.4626    1.2744   49.8784 H       1  <0>         0.0900
      4 C4         -5.6064    1.7496   51.9747 C.3     1  <0>        -0.0200
      5 C5         -6.7588    0.7795   51.9341 C.2     1  <0>         0.1900
      6 N6         -8.0228    1.0591   52.1434 N.2     1  <0>        -0.4500
      7 C7         -8.6793   -0.1065   52.0045 C.2     1  <0>         0.1500
      8 C8        -10.1647   -0.3162   52.1483 C.3     1  <0>         0.2300
      9 N9        -10.4932   -0.5309   53.5597 N.pl3   1  <0>        -0.3900
     10 C10       -10.7976    0.4118   54.4685 C.2     1  <0>         0.2600
     11 N11       -11.0278   -0.1842   55.6103 N.2     1  <0>        -0.5400
     12 C12       -10.8808   -1.5011   55.4703 C.2     1  <0>         0.2000
     13 N13       -10.5587   -1.7629   54.2308 N.2     1  <0>        -0.3100
     14 N14        -7.7976   -1.0186   51.7229 N.2     1  <0>        -0.3600
     15 O15        -6.6888   -0.5291   51.6721 O.3     1  <0>         0.0900
     16 C16        -3.6749    2.2573   50.5048 C.ar    1  <0>        -0.0900
     17 C17        -3.0506    3.0934   51.4112 C.ar    1  <0>        -0.0700
     18 C18        -1.6780    3.2525   51.3745 C.ar    1  <0>        -0.1400
     19 C19        -0.9281    2.5741   50.4294 C.ar    1  <0>         0.1300
     20 F20         0.4136    2.7286   50.3930 F       1  <0>        -0.1200
     21 C21        -1.5546    1.7361   49.5210 C.ar    1  <0>        -0.1300
     22 Br22       -0.5322    0.8078   48.2292 Br      1  <0>        -0.0200
     23 C23        -2.9270    1.5748   49.5633 C.ar    1  <0>        -0.0500
     24 H24        -6.9295    3.2577   50.1292 H       1  <0>         0.0600
     25 H25        -5.5559    4.1929   50.7672 H       1  <0>         0.0700
     26 H26        -5.5372    3.6213   49.0816 H       1  <0>         0.0700
     27 H27        -4.7717    1.3000   52.5126 H       1  <0>         0.1200
     28 H28        -5.9173    2.6620   52.4834 H       1  <0>         0.1100
     29 H29       -10.6930    0.5640   51.7821 H       1  <0>         0.1300
     30 H30       -10.4663   -1.1884   51.5683 H       1  <0>         0.1200
     31 H31       -10.8434    1.4756   54.2879 H       1  <0>         0.2200
     32 H32       -11.0109   -2.2338   56.2530 H       1  <0>         0.2200
     33 H33        -3.6357    3.6231   52.1485 H       1  <0>         0.1400
     34 H34        -1.1908    3.9061   52.0829 H       1  <0>         0.1500
     35 H35        -3.4159    0.9218   48.8555 H       1  <0>         0.1400
@<TRIPOS>BOND
     1     1     2    1
     2     1    24    1
     3     1    25    1
     4     1    26    1
     5     2     3    1
     6     2     4    1
     7     2    16    1
     8     4     5    1
     9     4    27    1
    10     4    28    1
    11     5    15    1
    12     5     6    2
    13     6     7    1
    14     7     8    1
    15     7    14    2
    16     8     9    1
    17     8    29    1
    18     8    30    1
    19     9    13    1
    20     9    10    1
    21    10    11    2
    22    10    31    1
    23    11    12    1
    24    12    13    2
    25    12    32    1
    26    14    15    1
    27    16    23   ar
    28    16    17   ar
    29    17    18   ar
    30    17    33    1
    31    18    19   ar
    32    18    34    1
    33    19    20    1
    34    19    21   ar
    35    21    22    1
    36    21    23   ar
    37    23    35    1
@<TRIPOS>SUBSTRUCTURE
     1 <0>         1 TEMP              0 ****  ****    0 ROOT


##########                                Name:    ZINC000572257265
##########                DOCK_Rotatable_Bonds:                  11
##########                         Heavy_Atoms:                  24
##########                    Molecular_Weight:             393.509
##########                DOCK_Rotatable_Bonds:                  11
##########                       Formal_Charge:          -0.0100002
##########                     HBond_Acceptors:                  11
##########                        HBond_Donors:                   3
##########                         Heavy_Atoms:                  24
##########                          Grid_Score:          -31.767839
##########                     Grid_vdw_energy:          -28.958876
##########                      Grid_es_energy:           -2.808964
##########           Internal_energy_repulsive:           10.563503

@<TRIPOS>MOLECULE
ZINC000572257265
 43 43 1 0 0
SMALL
USER_CHARGES


@<TRIPOS>ATOM
      1 C1          1.2171    1.7574   45.4128 C.3     1  ZINC000572257265   -0.1300
      2 S2          0.0199    0.8828   46.4580 S.3     1  ZINC000572257265   -0.2200
      3 C3          1.0099    0.4064   47.9015 C.3     1  ZINC000572257265   -0.1300
      4 C4          0.1321   -0.3631   48.8905 C.3     1  ZINC000572257265    0.1500
      5 C5         -0.3391   -1.6682   48.2459 C.3     1  ZINC000572257265   -0.1500
      6 O6          0.8869   -0.6585   50.0673 O.3     1  ZINC000572257265   -0.5400
      7 C7         -1.0827    0.4888   49.2642 C.3     1  ZINC000572257265    0.0900
      8 N8         -0.6360    1.6954   49.9647 N.am    1  ZINC000572257265   -1.1100
      9 S9         -1.5250    3.0889   49.8629 S.o2    1  ZINC000572257265    2.6900
     10 O10        -0.9240    4.0146   50.7580 O.2     1  ZINC000572257265   -0.9400
     11 O11        -1.7030    3.3508   48.4776 O.2     1  ZINC000572257265   -0.9500
     12 C12        -3.1244    2.7358   50.5121 C.ar    1  ZINC000572257265   -0.6300
     13 C13        -3.4709    3.1779   51.7751 C.ar    1  ZINC000572257265   -0.0400
     14 C14        -4.7258    2.9008   52.2845 C.ar    1  ZINC000572257265   -0.0400
     15 C15        -5.6343    2.1817   51.5305 C.ar    1  ZINC000572257265   -0.6300
     16 S16        -7.2336    1.8280   52.1800 S.o2    1  ZINC000572257265    2.7000
     17 O17        -7.5590    0.5129   51.7509 O.2     1  ZINC000572257265   -0.9400
     18 O18        -7.2062    2.2150   53.5470 O.2     1  ZINC000572257265   -0.9400
     19 N19        -8.3038    2.8435   51.4278 N.am    1  ZINC000572257265   -1.1200
     20 C20        -8.1463    4.2948   51.5504 C.3     1  ZINC000572257265    0.2200
     21 C21        -9.1256    4.8145   52.5189 C.1     1  ZINC000572257265    0.1900
     22 N22        -9.8813    5.2155   53.2662 N.1     1  ZINC000572257265   -0.3900
     23 C23        -5.2884    1.7406   50.2669 C.ar    1  ZINC000572257265   -0.0400
     24 C24        -4.0348    2.0211   49.7561 C.ar    1  ZINC000572257265   -0.0400
     25 H25         2.0352    1.0844   45.1562 H       1  ZINC000572257265    0.0800
     26 H26         0.7247    2.0952   44.5009 H       1  ZINC000572257265    0.1000
     27 H27         1.6107    2.6183   45.9533 H       1  ZINC000572257265    0.0800
     28 H28         1.8376   -0.2264   47.5816 H       1  ZINC000572257265    0.0900
     29 H29         1.4023    1.3015   48.3842 H       1  ZINC000572257265    0.0900
     30 H30         0.5263   -2.2751   47.9798 H       1  ZINC000572257265    0.0800
     31 H31        -0.9645   -2.2164   48.9505 H       1  ZINC000572257265    0.0700
     32 H32        -0.9149   -1.4429   47.3482 H       1  ZINC000572257265    0.0800
     33 H33         1.6193   -1.2727   49.9210 H       1  ZINC000572257265    0.3800
     34 H34        -1.6201    0.7720   48.3592 H       1  ZINC000572257265    0.0900
     35 H35        -1.7429   -0.0853   49.9142 H       1  ZINC000572257265    0.0800
     36 H36         0.1804    1.6781   50.4883 H       1  ZINC000572257265    0.4300
     37 H37        -2.7611    3.7397   52.3641 H       1  ZINC000572257265    0.1500
     38 H38        -4.9961    3.2457   53.2715 H       1  ZINC000572257265    0.1500
     39 H39        -9.0349    2.4773   50.9060 H       1  ZINC000572257265    0.4300
     40 H40        -7.1378    4.5230   51.8955 H       1  ZINC000572257265    0.1100
     41 H41        -8.3125    4.7616   50.5796 H       1  ZINC000572257265    0.1300
     42 H42        -5.9984    1.1792   49.6778 H       1  ZINC000572257265    0.1600
     43 H43        -3.7646    1.6765   48.7688 H       1  ZINC000572257265    0.1500
@<TRIPOS>BOND
     1     1     2    1
     2     1    25    1
     3     1    26    1
     4     1    27    1
     5     2     3    1
     6     3     4    1
     7     3    28    1
     8     3    29    1
     9     4     5    1
    10     4     6    1
    11     4     7    1
    12     5    30    1
    13     5    31    1
    14     5    32    1
    15     6    33    1
    16     7     8    1
    17     7    34    1
    18     7    35    1
    19     8     9   am
    20     8    36    1
    21     9    10    2
    22     9    11    2
    23     9    12    1
    24    12    24   ar
    25    12    13   ar
    26    13    14   ar
    27    13    37    1
    28    14    15   ar
    29    14    38    1
    30    15    16    1
    31    15    23   ar
    32    16    17    2
    33    16    18    2
    34    16    19   am
    35    19    20    1
    36    19    39    1
    37    20    21    1
    38    20    40    1
    39    20    41    1
    40    21    22    3
    41    23    24   ar
    42    23    42    1
    43    24    43    1
@<TRIPOS>SUBSTRUCTURE
     1 ZINC000572257265        1 TEMP              0 ****  ****    0 ROOT


##########                                Name:    ZINC000854704989
##########                DOCK_Rotatable_Bonds:                   5
##########                         Heavy_Atoms:                  22
##########                    Molecular_Weight:             365.227
##########                DOCK_Rotatable_Bonds:                   5
##########                       Formal_Charge:        -1.78814e-07
##########                     HBond_Acceptors:                   5
##########                        HBond_Donors:                   1
##########                         Heavy_Atoms:                  22
##########                          Grid_Score:          -31.745691
##########                     Grid_vdw_energy:          -31.606688
##########                      Grid_es_energy:           -0.139004
##########           Internal_energy_repulsive:            5.916309

@<TRIPOS>MOLECULE
ZINC000854704989
 39 41 1 0 0
SMALL
USER_CHARGES


@<TRIPOS>ATOM
      1 O1         -4.6802    4.2457   52.2538 O.2     1  ZINC000854704989   -0.5300
      2 C2         -4.2889    3.1812   51.8163 C.2     1  ZINC000854704989    0.5700
      3 N3         -4.9806    2.0528   52.0707 N.am    1  ZINC000854704989   -0.7300
      4 C4         -6.2007    2.1082   52.8796 C.3     1  ZINC000854704989    0.2000
      5 C5         -7.1573    1.0384   52.4199 C.2     1  ZINC000854704989   -0.0500
      6 C6         -8.5098    1.0865   52.4658 C.2     1  ZINC000854704989   -0.1700
      7 C7         -8.9147   -0.1543   51.9198 C.2     1  ZINC000854704989    0.0000
      8 Br8       -10.6893   -0.7621   51.6804 Br      1  ZINC000854704989    0.0600
      9 N9         -7.8223   -0.7949   51.6143 N.2     1  ZINC000854704989   -0.3200
     10 O10        -6.8372   -0.1458   51.8795 O.3     1  ZINC000854704989    0.1300
     11 C11        -3.0575    3.1252   50.9998 C.ar    1  ZINC000854704989   -0.1300
     12 C12        -2.1272    4.1636   51.0625 C.ar    1  ZINC000854704989   -0.0900
     13 C13        -0.9800    4.1049   50.2983 C.ar    1  ZINC000854704989   -0.1200
     14 C14        -0.7511    3.0202   49.4709 C.ar    1  ZINC000854704989   -0.0900
     15 C15        -1.6696    1.9872   49.4041 C.ar    1  ZINC000854704989   -0.0800
     16 C16        -1.4118    0.8094   48.5000 C.3     1  ZINC000854704989   -0.0800
     17 H17        -2.2415    0.1062   48.5725 H       1  ZINC000854704989    0.0900
     18 C18        -0.1135    0.1146   48.9218 C.3     1  ZINC000854704989   -0.1100
     19 C19         0.1784   -1.0321   47.9490 C.3     1  ZINC000854704989   -0.1600
     20 C20         0.2532   -0.4759   46.5246 C.3     1  ZINC000854704989    0.0600
     21 O21        -0.9740    0.1837   46.2071 O.3     1  ZINC000854704989   -0.3800
     22 C22        -1.2771    1.2942   47.0540 C.3     1  ZINC000854704989    0.0700
     23 C23        -2.8177    2.0308   50.1672 C.ar    1  ZINC000854704989   -0.0500
     24 H24        -4.6705    1.2040   51.7182 H       1  ZINC000854704989    0.4000
     25 H25        -5.9495    1.9451   53.9276 H       1  ZINC000854704989    0.1100
     26 H26        -6.6678    3.0865   52.7660 H       1  ZINC000854704989    0.1000
     27 H27        -9.1349    1.8865   52.8343 H       1  ZINC000854704989    0.1900
     28 H28        -2.3051    5.0113   51.7075 H       1  ZINC000854704989    0.1200
     29 H29        -0.2592    4.9078   50.3460 H       1  ZINC000854704989    0.1300
     30 H30         0.1483    2.9793   48.8742 H       1  ZINC000854704989    0.1300
     31 H31         0.7077    0.8310   48.8979 H       1  ZINC000854704989    0.0700
     32 H32        -0.2235   -0.2824   49.9309 H       1  ZINC000854704989    0.0700
     33 H33         1.1293   -1.4971   48.2089 H       1  ZINC000854704989    0.0800
     34 H34        -0.6189   -1.7728   48.0094 H       1  ZINC000854704989    0.0700
     35 H35         1.0766    0.2348   46.4547 H       1  ZINC000854704989    0.0500
     36 H36         0.4183   -1.2938   45.8233 H       1  ZINC000854704989    0.1000
     37 H37        -2.2135    1.7508   46.7335 H       1  ZINC000854704989    0.1000
     38 H38        -0.4742    2.0287   46.9918 H       1  ZINC000854704989    0.0500
     39 H39        -3.5336    1.2238   50.1144 H       1  ZINC000854704989    0.1400
@<TRIPOS>BOND
     1     1     2    2
     2     2     3   am
     3     2    11    1
     4     3     4    1
     5     3    24    1
     6     4     5    1
     7     4    25    1
     8     4    26    1
     9     5    10    1
    10     5     6    2
    11     6     7    1
    12     6    27    1
    13     7     8    1
    14     7     9    2
    15     9    10    1
    16    11    23   ar
    17    11    12   ar
    18    12    13   ar
    19    12    28    1
    20    13    14   ar
    21    13    29    1
    22    14    15   ar
    23    14    30    1
    24    15    16    1
    25    15    23   ar
    26    16    17    1
    27    16    22    1
    28    16    18    1
    29    18    19    1
    30    18    31    1
    31    18    32    1
    32    19    20    1
    33    19    33    1
    34    19    34    1
    35    20    21    1
    36    20    35    1
    37    20    36    1
    38    21    22    1
    39    22    37    1
    40    22    38    1
    41    23    39    1
@<TRIPOS>SUBSTRUCTURE
     1 ZINC000854704989        1 TEMP              0 ****  ****    0 ROOT


##########                                Name:    ZINC000538774026
##########                DOCK_Rotatable_Bonds:                  10
##########                         Heavy_Atoms:                  29
##########                    Molecular_Weight:             414.496
##########                DOCK_Rotatable_Bonds:                  10
##########                       Formal_Charge:            0.049999
##########                     HBond_Acceptors:                   9
##########                        HBond_Donors:                   2
##########                         Heavy_Atoms:                  29
##########                          Grid_Score:          -31.707140
##########                     Grid_vdw_energy:          -31.232311
##########                      Grid_es_energy:           -0.474830
##########           Internal_energy_repulsive:           34.793472

@<TRIPOS>MOLECULE
ZINC000538774026
 61 62 1 0 0
SMALL
USER_CHARGES


@<TRIPOS>ATOM
      1 C1        -10.8796    4.3496   51.1595 C.3     1  ZINC000538774026   -0.1500
      2 C2        -10.1631    4.4277   52.5092 C.3     1  ZINC000538774026   -0.1100
      3 C3        -11.1521    4.1053   53.6311 C.3     1  ZINC000538774026   -0.1400
      4 C4         -9.0145    3.4172   52.5359 C.3     1  ZINC000538774026    0.1400
      5 N5         -8.0675    3.7258   51.4616 N.pl3   1  ZINC000538774026   -0.3400
      6 N6         -7.9423    4.9544   50.8005 N.2     1  ZINC000538774026   -0.2500
      7 C7         -6.9928    4.8468   49.9068 C.2     1  ZINC000538774026    0.0500
      8 C8         -6.4772    3.5440   49.9655 C.2     1  ZINC000538774026    0.0800
      9 N9         -5.4401    3.0256   49.1657 N.am    1  ZINC000538774026   -0.6600
     10 C10        -4.2605    2.6912   49.7253 C.2     1  ZINC000538774026    0.7100
     11 O11        -4.0922    2.8355   50.9210 O.2     1  ZINC000538774026   -0.5700
     12 N12        -3.2676    2.1968   48.9598 N.am    1  ZINC000538774026   -0.7300
     13 C13        -1.9848    1.8349   49.5679 C.3     1  ZINC000538774026    0.1600
     14 C14        -1.4726    0.5356   48.9428 C.3     1  ZINC000538774026   -0.1300
     15 C15        -1.2856    0.7332   47.4371 C.3     1  ZINC000538774026   -0.1000
     16 C16        -0.2712    1.8519   47.1916 C.3     1  ZINC000538774026   -0.0800
     17 C17        -0.0871    2.0465   45.7085 C.2     1  ZINC000538774026    0.4700
     18 O18         0.0194    1.0869   44.9821 O.2     1  ZINC000538774026   -0.5000
     19 O19        -0.0415    3.2856   45.1947 O.3     1  ZINC000538774026   -0.3500
     20 C20         1.2527    3.7647   44.7431 C.3     1  ZINC000538774026    0.1200
     21 C21         1.5727    3.1571   43.3758 C.3     1  ZINC000538774026   -0.1800
     22 C22         1.2201    5.2901   44.6284 C.3     1  ZINC000538774026   -0.1400
     23 C23         2.3289    3.3518   45.7492 C.3     1  ZINC000538774026   -0.1800
     24 C24        -0.7834    3.1511   47.8167 C.3     1  ZINC000538774026   -0.1100
     25 C25        -0.9703    2.9536   49.3223 C.3     1  ZINC000538774026   -0.1300
     26 C26        -7.1510    2.8730   50.9340 C.2     1  ZINC000538774026   -0.0500
     27 C27        -6.9291    1.4398   51.3434 C.3     1  ZINC000538774026    0.3500
     28 F28        -8.1292    0.8990   51.8173 F       1  ZINC000538774026   -0.1900
     29 F29        -6.4893    0.7021   50.2390 F       1  ZINC000538774026   -0.1900
     30 H30       -11.6979    5.0694   51.1405 H       1  ZINC000538774026    0.0600
     31 H31       -10.1750    4.5792   50.3603 H       1  ZINC000538774026    0.0600
     32 H32       -11.2764    3.3445   51.0164 H       1  ZINC000538774026    0.0600
     33 H33        -9.7662    5.4327   52.6523 H       1  ZINC000538774026    0.0800
     34 H34       -11.5489    3.1003   53.4880 H       1  ZINC000538774026    0.0600
     35 H35       -10.6416    4.1608   54.5926 H       1  ZINC000538774026    0.0600
     36 H36       -11.9704    4.8252   53.6120 H       1  ZINC000538774026    0.0600
     37 H37        -8.5040    3.4728   53.4973 H       1  ZINC000538774026    0.1000
     38 H38        -9.4113    2.4122   52.3928 H       1  ZINC000538774026    0.1000
     39 H39        -6.6627    5.6278   49.2379 H       1  ZINC000538774026    0.2100
     40 H40        -5.5748    2.9094   48.2122 H       1  ZINC000538774026    0.4100
     41 H41        -3.4023    2.0805   48.0063 H       1  ZINC000538774026    0.4000
     42 H42        -2.1179    1.6942   50.6404 H       1  ZINC000538774026    0.1000
     43 H43        -0.5182    0.2665   49.3951 H       1  ZINC000538774026    0.0800
     44 H44        -2.1952   -0.2613   49.1177 H       1  ZINC000538774026    0.0800
     45 H45        -0.9207   -0.1924   46.9918 H       1  ZINC000538774026    0.0700
     46 H46        -2.2401    1.0025   46.9847 H       1  ZINC000538774026    0.0700
     47 H47         0.6832    1.5826   47.6439 H       1  ZINC000538774026    0.1100
     48 H48         0.8059    3.4513   42.6591 H       1  ZINC000538774026    0.0600
     49 H49         2.5442    3.5168   43.0368 H       1  ZINC000538774026    0.0700
     50 H50         1.5958    2.0705   43.4576 H       1  ZINC000538774026    0.0800
     51 H51         0.9921    5.7230   45.6023 H       1  ZINC000538774026    0.0700
     52 H52         2.1916    5.6497   44.2892 H       1  ZINC000538774026    0.0800
     53 H53         0.4534    5.5843   43.9116 H       1  ZINC000538774026    0.0700
     54 H54         2.3521    2.2652   45.8309 H       1  ZINC000538774026    0.0800
     55 H55         3.3004    3.7115   45.4101 H       1  ZINC000538774026    0.0700
     56 H56         2.1009    3.7847   46.7233 H       1  ZINC000538774026    0.0600
     57 H57        -0.0607    3.9481   47.6417 H       1  ZINC000538774026    0.0800
     58 H58        -1.7379    3.4203   47.3643 H       1  ZINC000538774026    0.0600
     59 H59        -1.3352    3.8792   49.7675 H       1  ZINC000538774026    0.0800
     60 H60        -0.0159    2.6843   49.7746 H       1  ZINC000538774026    0.0900
     61 H61        -6.1763    1.3991   52.1306 H       1  ZINC000538774026    0.1300
@<TRIPOS>BOND
     1     1     2    1
     2     1    30    1
     3     1    31    1
     4     1    32    1
     5     2     3    1
     6     2     4    1
     7     2    33    1
     8     3    34    1
     9     3    35    1
    10     3    36    1
    11     4     5    1
    12     4    37    1
    13     4    38    1
    14     5    26    1
    15     5     6    1
    16     6     7    2
    17     7     8    1
    18     7    39    1
    19     8     9    1
    20     8    26    2
    21     9    10   am
    22     9    40    1
    23    10    11    2
    24    10    12   am
    25    12    13    1
    26    12    41    1
    27    13    25    1
    28    13    14    1
    29    13    42    1
    30    14    15    1
    31    14    43    1
    32    14    44    1
    33    15    16    1
    34    15    45    1
    35    15    46    1
    36    16    17    1
    37    16    24    1
    38    16    47    1
    39    17    18    2
    40    17    19    1
    41    19    20    1
    42    20    21    1
    43    20    22    1
    44    20    23    1
    45    21    48    1
    46    21    49    1
    47    21    50    1
    48    22    51    1
    49    22    52    1
    50    22    53    1
    51    23    54    1
    52    23    55    1
    53    23    56    1
    54    24    25    1
    55    24    57    1
    56    24    58    1
    57    25    59    1
    58    25    60    1
    59    26    27    1
    60    27    28    1
    61    27    29    1
    62    27    61    1
@<TRIPOS>SUBSTRUCTURE
     1 ZINC000538774026        1 TEMP              0 ****  ****    0 ROOT


##########                                Name:    ZINC001041713551
##########                DOCK_Rotatable_Bonds:                  10
##########                         Heavy_Atoms:                  22
##########                    Molecular_Weight:             330.448
##########                DOCK_Rotatable_Bonds:                  10
##########                       Formal_Charge:          -0.0100006
##########                     HBond_Acceptors:                   7
##########                        HBond_Donors:                   2
##########                         Heavy_Atoms:                  22
##########                          Grid_Score:          -31.693033
##########                     Grid_vdw_energy:          -30.108932
##########                      Grid_es_energy:           -1.584101
##########           Internal_energy_repulsive:            7.990836

@<TRIPOS>MOLECULE
ZINC001041713551
 48 49 1 0 0
SMALL
USER_CHARGES


@<TRIPOS>ATOM
      1 C1         -8.6273    1.1722   58.3039 C.3     1  ZINC001041713551   -0.1500
      2 C2         -8.2350    2.6101   58.6502 C.3     1  ZINC001041713551   -0.1100
      3 C3         -7.0416    3.0339   57.7918 C.3     1  ZINC001041713551   -0.1000
      4 S4         -7.4888    2.9230   56.0373 S.3     1  ZINC001041713551   -0.1800
      5 C5         -5.9864    3.4938   55.1963 C.3     1  ZINC001041713551   -0.1300
      6 C6         -6.2068    3.4739   53.7056 C.2     1  ZINC001041713551    0.5300
      7 O7         -6.6383    4.4580   53.1432 O.2     1  ZINC001041713551   -0.5100
      8 N8         -5.9246    2.3624   52.9974 N.am    1  ZINC001041713551   -0.7300
      9 C9         -6.1373    2.3436   51.5480 C.3     1  ZINC001041713551    0.1000
     10 C10        -4.8313    2.7019   50.8362 C.3     1  ZINC001041713551    0.0900
     11 O11        -4.1733    3.8310   51.4143 O.3     1  ZINC001041713551   -0.5200
     12 C12        -3.9042    1.4961   50.5982 C.3     1  ZINC001041713551    0.0900
     13 N13        -3.6659    2.0712   49.2601 N.am    1  ZINC001041713551   -0.6400
     14 C14        -2.6668    1.9856   48.3595 C.2     1  ZINC001041713551    0.5500
     15 O15        -2.7437    2.5875   47.3095 O.2     1  ZINC001041713551   -0.5100
     16 C16        -1.4541    1.1420   48.6574 C.3     1  ZINC001041713551    0.0800
     17 H17        -1.0459    1.4222   49.6285 H       1  ZINC001041713551    0.0800
     18 C18        -0.3961    1.3686   47.5744 C.3     1  ZINC001041713551   -0.1500
     19 C19         0.8084    0.4635   47.8508 C.3     1  ZINC001041713551   -0.1200
     20 C20         0.3365   -0.9927   47.9070 C.3     1  ZINC001041713551   -0.1600
     21 C21        -0.7497   -1.1281   48.9771 C.3     1  ZINC001041713551    0.0600
     22 O22        -1.8262   -0.2375   48.6769 O.3     1  ZINC001041713551   -0.3600
     23 C23        -4.9609    2.7775   49.3041 C.3     1  ZINC001041713551    0.1200
     24 H24        -7.7850    0.5087   58.4997 H       1  ZINC001041713551    0.0600
     25 H25        -9.4775    0.8703   58.9154 H       1  ZINC001041713551    0.0600
     26 H26        -8.8987    1.1135   57.2499 H       1  ZINC001041713551    0.0600
     27 H27        -9.0773    3.2736   58.4543 H       1  ZINC001041713551    0.0700
     28 H28        -7.9636    2.6688   59.7042 H       1  ZINC001041713551    0.0700
     29 H29        -6.7673    4.0610   58.0326 H       1  ZINC001041713551    0.0800
     30 H30        -6.1967    2.3754   57.9937 H       1  ZINC001041713551    0.0800
     31 H31        -5.7550    4.5099   55.5158 H       1  ZINC001041713551    0.1100
     32 H32        -5.1557    2.8351   55.4496 H       1  ZINC001041713551    0.1100
     33 H33        -5.5808    1.5749   53.4474 H       1  ZINC001041713551    0.4000
     34 H34        -6.4574    1.3481   51.2407 H       1  ZINC001041713551    0.0900
     35 H35        -6.9060    3.0700   51.2842 H       1  ZINC001041713551    0.0900
     36 H36        -3.9585    3.7240   52.3512 H       1  ZINC001041713551    0.3800
     37 H37        -3.0208    1.4883   51.2368 H       1  ZINC001041713551    0.0900
     38 H38        -4.4249    0.5387   50.5786 H       1  ZINC001041713551    0.1000
     39 H39        -0.8166    1.1272   46.5981 H       1  ZINC001041713551    0.0800
     40 H40        -0.0787    2.4114   47.5876 H       1  ZINC001041713551    0.0800
     41 H41         1.5419    0.5786   47.0527 H       1  ZINC001041713551    0.0700
     42 H42         1.2593    0.7377   48.8045 H       1  ZINC001041713551    0.0700
     43 H43        -0.0692   -1.2818   46.9374 H       1  ZINC001041713551    0.0700
     44 H44         1.1778   -1.6388   48.1580 H       1  ZINC001041713551    0.0800
     45 H45        -1.1196   -2.1534   48.9921 H       1  ZINC001041713551    0.1000
     46 H46        -0.3324   -0.8778   49.9524 H       1  ZINC001041713551    0.0500
     47 H47        -5.7921    2.1964   48.9044 H       1  ZINC001041713551    0.1100
     48 H48        -4.9213    3.7928   48.9095 H       1  ZINC001041713551    0.1000
@<TRIPOS>BOND
     1     1     2    1
     2     1    24    1
     3     1    25    1
     4     1    26    1
     5     2     3    1
     6     2    27    1
     7     2    28    1
     8     3     4    1
     9     3    29    1
    10     3    30    1
    11     4     5    1
    12     5     6    1
    13     5    31    1
    14     5    32    1
    15     6     7    2
    16     6     8   am
    17     8     9    1
    18     8    33    1
    19     9    10    1
    20     9    34    1
    21     9    35    1
    22    10    23    1
    23    10    11    1
    24    10    12    1
    25    11    36    1
    26    12    13    1
    27    12    37    1
    28    12    38    1
    29    13    14   am
    30    13    23    1
    31    14    15    2
    32    14    16    1
    33    16    17    1
    34    16    22    1
    35    16    18    1
    36    18    19    1
    37    18    39    1
    38    18    40    1
    39    19    20    1
    40    19    41    1
    41    19    42    1
    42    20    21    1
    43    20    43    1
    44    20    44    1
    45    21    22    1
    46    21    45    1
    47    21    46    1
    48    23    47    1
    49    23    48    1
@<TRIPOS>SUBSTRUCTURE
     1 ZINC001041713551        1 TEMP              0 ****  ****    0 ROOT


##########                                Name:    ZINC000052999724
##########                DOCK_Rotatable_Bonds:                   6
##########                         Heavy_Atoms:                  25
##########                    Molecular_Weight:             398.571
##########                DOCK_Rotatable_Bonds:                   6
##########                       Formal_Charge:           0.0399994
##########                     HBond_Acceptors:                   8
##########                        HBond_Donors:                   1
##########                         Heavy_Atoms:                  25
##########                          Grid_Score:          -31.668943
##########                     Grid_vdw_energy:          -31.023840
##########                      Grid_es_energy:           -0.645103
##########           Internal_energy_repulsive:           19.728861

@<TRIPOS>MOLECULE
ZINC000052999724
 47 49 1 0 0
SMALL
USER_CHARGES


@<TRIPOS>ATOM
      1 C1         -0.9073   -1.0649   48.8362 C.3     1  ZINC000052999724   -0.1400
      2 C2         -0.1601    0.2068   49.2425 C.3     1  ZINC000052999724   -0.0400
      3 C3          1.3278   -0.1075   49.4100 C.3     1  ZINC000052999724   -0.1400
      4 C4         -0.3350    1.2553   48.1743 C.2     1  ZINC000052999724   -0.0400
      5 C5         -0.6926    2.5470   48.4408 C.2     1  ZINC000052999724   -0.2600
      6 C6         -0.9544    3.0992   49.7731 C.2     1  ZINC000052999724    0.6000
      7 O7         -0.1463    3.8473   50.2913 O.2     1  ZINC000052999724   -0.5200
      8 N8         -2.0900    2.7785   50.4243 N.am    1  ZINC000052999724   -0.6000
      9 C9         -2.3694    3.3288   51.7576 C.3     1  ZINC000052999724    0.1100
     10 C10        -3.7474    3.9975   51.7363 C.3     1  ZINC000052999724   -0.1400
     11 C11        -4.7898    2.9930   51.2398 C.3     1  ZINC000052999724    0.1500
     12 N12        -6.1142    3.6191   51.2495 N.am    1  ZINC000052999724   -1.1100
     13 S13        -7.2567    3.1229   52.3408 S.o2    1  ZINC000052999724    2.7200
     14 O14        -6.6515    3.2112   53.6234 O.2     1  ZINC000052999724   -0.9500
     15 O15        -8.4583    3.8008   52.0000 O.2     1  ZINC000052999724   -0.9400
     16 C16        -7.5506    1.4108   52.0461 C.2     1  ZINC000052999724   -0.8000
     17 C17        -8.6538    0.7483   52.3975 C.2     1  ZINC000052999724    0.0100
     18 C18        -8.6601   -0.5942   52.0604 C.2     1  ZINC000052999724   -0.1600
     19 C19        -7.5622   -1.0220   51.4354 C.2     1  ZINC000052999724   -0.1700
     20 S20        -6.4374    0.3156   51.2369 S.3     1  ZINC000052999724    0.2100
     21 C21        -4.4424    2.5569   49.8146 C.3     1  ZINC000052999724   -0.1500
     22 C22        -3.0750    1.8767   49.8117 C.3     1  ZINC000052999724    0.1100
     23 S23        -0.7877    3.4406   46.9294 S.3     1  ZINC000052999724    0.2100
     24 C24        -0.3499    2.0582   46.0304 C.2     1  ZINC000052999724   -0.2400
     25 C25        -0.1451    1.0090   46.8352 C.2     1  ZINC000052999724   -0.1300
     26 H26        -1.9674   -0.8411   48.7169 H       1  ZINC000052999724    0.0600
     27 H27        -0.5061   -1.4365   47.8933 H       1  ZINC000052999724    0.0600
     28 H28        -0.7808   -1.8233   49.6089 H       1  ZINC000052999724    0.0600
     29 H29        -0.5613    0.5783   50.1855 H       1  ZINC000052999724    0.0800
     30 H30         1.7291   -0.4790   48.4671 H       1  ZINC000052999724    0.0600
     31 H31         1.8602    0.7986   49.6995 H       1  ZINC000052999724    0.0600
     32 H32         1.4544   -0.8658   50.1826 H       1  ZINC000052999724    0.0600
     33 H33        -2.3649    2.5244   52.4931 H       1  ZINC000052999724    0.0800
     34 H34        -1.6092    4.0664   52.0151 H       1  ZINC000052999724    0.0900
     35 H35        -4.0084    4.3254   52.7425 H       1  ZINC000052999724    0.0900
     36 H36        -3.7239    4.8579   51.0674 H       1  ZINC000052999724    0.0800
     37 H37        -4.7952    2.1217   51.8948 H       1  ZINC000052999724    0.0900
     38 H38        -6.3220    4.3243   50.6167 H       1  ZINC000052999724    0.4200
     39 H39        -9.4793    1.2234   52.9065 H       1  ZINC000052999724    0.1600
     40 H40        -9.4910   -1.2460   52.2867 H       1  ZINC000052999724    0.1500
     41 H41        -7.3915   -2.0342   51.0993 H       1  ZINC000052999724    0.1800
     42 H42        -5.1979    1.8595   49.4532 H       1  ZINC000052999724    0.1000
     43 H43        -4.4124    3.4309   49.1639 H       1  ZINC000052999724    0.0800
     44 H44        -2.7801    1.6537   48.7862 H       1  ZINC000052999724    0.1000
     45 H45        -3.1250    0.9534   50.3887 H       1  ZINC000052999724    0.0800
     46 H46        -0.2478    2.0343   44.9555 H       1  ZINC000052999724    0.1700
     47 H47         0.1406    0.0375   46.4595 H       1  ZINC000052999724    0.1400
@<TRIPOS>BOND
     1     1     2    1
     2     1    26    1
     3     1    27    1
     4     1    28    1
     5     2     3    1
     6     2     4    1
     7     2    29    1
     8     3    30    1
     9     3    31    1
    10     3    32    1
    11     4    25    1
    12     4     5    2
    13     5     6    1
    14     5    23    1
    15     6     7    2
    16     6     8   am
    17     8    22    1
    18     8     9    1
    19     9    10    1
    20     9    33    1
    21     9    34    1
    22    10    11    1
    23    10    35    1
    24    10    36    1
    25    11    12    1
    26    11    21    1
    27    11    37    1
    28    12    13   am
    29    12    38    1
    30    13    14    2
    31    13    15    2
    32    13    16    1
    33    16    20    1
    34    16    17    2
    35    17    18    1
    36    17    39    1
    37    18    19    2
    38    18    40    1
    39    19    20    1
    40    19    41    1
    41    21    22    1
    42    21    42    1
    43    21    43    1
    44    22    44    1
    45    22    45    1
    46    23    24    1
    47    24    25    2
    48    24    46    1
    49    25    47    1
@<TRIPOS>SUBSTRUCTURE
     1 ZINC000052999724        1 TEMP              0 ****  ****    0 ROOT


##########                                Name:    ZINC000672622940
##########                DOCK_Rotatable_Bonds:                   7
##########                         Heavy_Atoms:                  30
##########                    Molecular_Weight:             416.523
##########                DOCK_Rotatable_Bonds:                   7
##########                       Formal_Charge:          -0.0100002
##########                     HBond_Acceptors:                   9
##########                        HBond_Donors:                   1
##########                         Heavy_Atoms:                  30
##########                          Grid_Score:          -31.643316
##########                     Grid_vdw_energy:          -31.247437
##########                      Grid_es_energy:           -0.395881
##########           Internal_energy_repulsive:           22.109695

@<TRIPOS>MOLECULE
ZINC000672622940
 62 65 1 0 0
SMALL
USER_CHARGES


@<TRIPOS>ATOM
      1 C1        -11.4413   -0.7842   51.3807 C.3     1  ZINC000672622940    0.0800
      2 N2        -11.0797    0.5172   51.9478 N.am    1  ZINC000672622940   -0.6200
      3 C3        -12.1090    1.5403   52.1486 C.3     1  ZINC000672622940    0.0700
      4 C4         -9.8001    0.7734   52.2847 C.2     1  ZINC000672622940    0.5200
      5 O5         -8.9478   -0.0729   52.1170 O.2     1  ZINC000672622940   -0.5300
      6 C6         -9.4284    2.1116   52.8697 C.3     1  ZINC000672622940   -0.1000
      7 H7         -9.9155    2.9043   52.3018 H       1  ZINC000672622940    0.1000
      8 C8         -9.8849    2.1750   54.3286 C.3     1  ZINC000672622940   -0.1300
      9 C9         -9.5075    3.5335   54.9225 C.3     1  ZINC000672622940   -0.1100
     10 C10        -7.9900    3.7160   54.8546 C.3     1  ZINC000672622940   -0.1300
     11 C11        -7.5335    3.6527   53.3956 C.3     1  ZINC000672622940    0.1400
     12 H12        -8.0206    4.4454   52.8278 H       1  ZINC000672622940    0.1000
     13 N13        -6.0804    3.8275   53.3305 N.am    1  ZINC000672622940   -0.6900
     14 C14        -5.5068    4.2867   52.2007 C.2     1  ZINC000672622940    0.5100
     15 O15        -6.1942    4.5570   51.2378 O.2     1  ZINC000672622940   -0.5100
     16 C16        -4.0243    4.4633   52.1337 C.2     1  ZINC000672622940    0.5100
     17 O17        -3.5135    5.4750   52.5675 O.2     1  ZINC000672622940   -0.5200
     18 N18        -3.2546    3.4989   51.5916 N.am    1  ZINC000672622940   -0.5800
     19 C19        -3.8589    2.2711   51.0567 C.3     1  ZINC000672622940    0.0700
     20 C20        -3.3836    2.0759   49.6135 C.3     1  ZINC000672622940   -0.1200
     21 C21        -1.8538    2.0904   49.5781 C.3     1  ZINC000672622940    0.0000
     22 C22        -1.3821    1.8645   48.1648 C.2     1  ZINC000672622940    0.2000
     23 N23        -1.8360    2.4559   47.0936 N.2     1  ZINC000672622940   -0.2800
     24 N24        -1.2048    2.0235   46.0603 N.2     1  ZINC000672622940   -0.2800
     25 C25        -0.3182    1.1363   46.4267 C.2     1  ZINC000672622940    0.1500
     26 C26         0.7575    0.2164   45.8909 C.3     1  ZINC000672622940   -0.0400
     27 C27         1.5862   -0.1677   47.1379 C.3     1  ZINC000672622940   -0.1300
     28 C28         0.5561    0.0220   48.2728 C.3     1  ZINC000672622940    0.1000
     29 N29        -0.4030    1.0132   47.7701 N.pl3   1  ZINC000672622940   -0.4900
     30 C30        -1.3431    3.4446   50.0758 C.3     1  ZINC000672622940   -0.1200
     31 C31        -1.7958    3.6580   51.5187 C.3     1  ZINC000672622940    0.1100
     32 C32        -7.9109    2.2942   52.8017 C.3     1  ZINC000672622940   -0.1100
     33 H33       -11.3549   -0.7442   50.2949 H       1  ZINC000672622940    0.0600
     34 H34       -10.7704   -1.5496   51.7707 H       1  ZINC000672622940    0.0800
     35 H35       -12.4680   -1.0273   51.6547 H       1  ZINC000672622940    0.0700
     36 H36       -12.5405    1.4311   53.1436 H       1  ZINC000672622940    0.0600
     37 H37       -11.6614    2.5295   52.0532 H       1  ZINC000672622940    0.0800
     38 H38       -12.8908    1.4212   51.3985 H       1  ZINC000672622940    0.0700
     39 H39       -10.9661    2.0450   54.3770 H       1  ZINC000672622940    0.0800
     40 H40        -9.3978    1.3822   54.8965 H       1  ZINC000672622940    0.0700
     41 H41        -9.9946    4.3263   54.3547 H       1  ZINC000672622940    0.0700
     42 H42        -9.8327    3.5786   55.9619 H       1  ZINC000672622940    0.0700
     43 H43        -7.7211    4.6839   55.2777 H       1  ZINC000672622940    0.0700
     44 H44        -7.5029    2.9233   55.4224 H       1  ZINC000672622940    0.0700
     45 H45        -5.5311    3.6126   54.1006 H       1  ZINC000672622940    0.4100
     46 H46        -3.5503    1.4185   51.6616 H       1  ZINC000672622940    0.0700
     47 H47        -4.9451    2.3606   51.0748 H       1  ZINC000672622940    0.1400
     48 H48        -3.7472    1.1198   49.2370 H       1  ZINC000672622940    0.0800
     49 H49        -3.7696    2.8831   48.9911 H       1  ZINC000672622940    0.0800
     50 H50        -1.4681    1.2988   50.2205 H       1  ZINC000672622940    0.0900
     51 H51         0.3114   -0.6708   45.4415 H       1  ZINC000672622940    0.1000
     52 H52         1.3803    0.7401   45.1656 H       1  ZINC000672622940    0.1000
     53 H53         1.9178   -1.2044   47.0816 H       1  ZINC000672622940    0.1100
     54 H54         2.4344    0.5052   47.2648 H       1  ZINC000672622940    0.0900
     55 H55         0.0528   -0.9210   48.4863 H       1  ZINC000672622940    0.1000
     56 H56         1.0483    0.3989   49.1693 H       1  ZINC000672622940    0.1000
     57 H57        -0.2543    3.4627   50.0283 H       1  ZINC000672622940    0.0800
     58 H58        -1.7484    4.2389   49.4489 H       1  ZINC000672622940    0.0800
     59 H59        -1.5196    4.6612   51.8437 H       1  ZINC000672622940    0.1000
     60 H60        -1.3208    2.9190   52.1638 H       1  ZINC000672622940    0.0800
     61 H61        -7.4238    1.5014   53.3695 H       1  ZINC000672622940    0.0800
     62 H62        -7.5856    2.2490   51.7623 H       1  ZINC000672622940    0.0800
@<TRIPOS>BOND
     1     1     2    1
     2     1    33    1
     3     1    34    1
     4     1    35    1
     5     2     3    1
     6     2     4   am
     7     3    36    1
     8     3    37    1
     9     3    38    1
    10     4     5    2
    11     4     6    1
    12     6     7    1
    13     6    32    1
    14     6     8    1
    15     8     9    1
    16     8    39    1
    17     8    40    1
    18     9    10    1
    19     9    41    1
    20     9    42    1
    21    10    11    1
    22    10    43    1
    23    10    44    1
    24    11    12    1
    25    11    13    1
    26    11    32    1
    27    13    14   am
    28    13    45    1
    29    14    15    2
    30    14    16    1
    31    16    17    2
    32    16    18   am
    33    18    31    1
    34    18    19    1
    35    19    20    1
    36    19    46    1
    37    19    47    1
    38    20    21    1
    39    20    48    1
    40    20    49    1
    41    21    22    1
    42    21    30    1
    43    21    50    1
    44    22    29    1
    45    22    23    2
    46    23    24    1
    47    24    25    2
    48    25    29    1
    49    25    26    1
    50    26    27    1
    51    26    51    1
    52    26    52    1
    53    27    28    1
    54    27    53    1
    55    27    54    1
    56    28    29    1
    57    28    55    1
    58    28    56    1
    59    30    31    1
    60    30    57    1
    61    30    58    1
    62    31    59    1
    63    31    60    1
    64    32    61    1
    65    32    62    1
@<TRIPOS>SUBSTRUCTURE
     1 ZINC000672622940        1 TEMP              0 ****  ****    0 ROOT


##########                                Name:    ZINC000790205345
##########                DOCK_Rotatable_Bonds:                   7
##########                         Heavy_Atoms:                  28
##########                    Molecular_Weight:             382.459
##########                DOCK_Rotatable_Bonds:                   7
##########                       Formal_Charge:          -0.0299997
##########                     HBond_Acceptors:                   6
##########                        HBond_Donors:                   0
##########                         Heavy_Atoms:                  28
##########                          Grid_Score:          -31.614491
##########                     Grid_vdw_energy:          -30.575684
##########                      Grid_es_energy:           -1.038807
##########           Internal_energy_repulsive:           49.509117

@<TRIPOS>MOLECULE
ZINC000790205345
 54 56 1 0 0
SMALL
USER_CHARGES


@<TRIPOS>ATOM
      1 C1         -7.9318    1.2184   62.4206 C.3     1  ZINC000790205345   -0.1100
      2 C2         -9.2819    0.6076   62.1460 C.ar    1  ZINC000790205345   -0.1300
      3 C3        -10.4203    1.1812   62.6807 C.ar    1  ZINC000790205345   -0.0800
      4 C4        -11.6594    0.6235   62.4302 C.ar    1  ZINC000790205345   -0.2100
      5 C5        -11.7603   -0.5129   61.6413 C.ar    1  ZINC000790205345    0.1300
      6 O6        -12.9779   -1.0632   61.3928 O.3     1  ZINC000790205345   -0.2900
      7 C7        -13.5314   -0.8530   60.0922 C.3     1  ZINC000790205345    0.0400
      8 C8        -14.2198   -2.1115   59.6299 C.2     1  ZINC000790205345    0.5200
      9 O9        -14.3191   -3.0590   60.3804 O.2     1  ZINC000790205345   -0.5100
     10 N10       -14.7250   -2.1840   58.3826 N.am    1  ZINC000790205345   -0.6100
     11 C11       -15.3957   -3.4068   57.9340 C.3     1  ZINC000790205345    0.0700
     12 C12       -14.6035   -1.0402   57.4754 C.3     1  ZINC000790205345    0.1800
     13 H13       -14.4106   -0.1366   58.0538 H       1  ZINC000790205345    0.1200
     14 C14       -15.9046   -0.8735   56.6878 C.3     1  ZINC000790205345   -0.1600
     15 C15       -13.4637   -1.2768   56.5183 C.ar    1  ZINC000790205345   -0.0700
     16 C16       -12.4293   -2.1232   56.8721 C.ar    1  ZINC000790205345   -0.1300
     17 C17       -11.3812   -2.3425   55.9968 C.ar    1  ZINC000790205345   -0.0900
     18 C18       -11.3653   -1.7167   54.7659 C.ar    1  ZINC000790205345   -0.1500
     19 C19       -12.4032   -0.8664   54.4073 C.ar    1  ZINC000790205345    0.1800
     20 N20       -12.3901   -0.2309   53.1604 N.am    1  ZINC000790205345   -0.5700
     21 C21       -13.4191    0.6937   52.6607 C.3     1  ZINC000790205345    0.0600
     22 C22       -12.9099    1.0877   51.2608 C.3     1  ZINC000790205345    0.0400
     23 O23       -11.6604    0.3515   51.1198 O.3     1  ZINC000790205345   -0.3200
     24 C24       -11.4351   -0.3611   52.2294 C.2     1  ZINC000790205345    0.6400
     25 O25       -10.4578   -1.0681   52.3763 O.2     1  ZINC000790205345   -0.5000
     26 C26       -13.4565   -0.6523   55.2863 C.ar    1  ZINC000790205345   -0.1400
     27 C27       -10.6161   -1.0868   61.1056 C.ar    1  ZINC000790205345   -0.1500
     28 C28        -9.3804   -0.5223   61.3548 C.ar    1  ZINC000790205345   -0.0500
     29 C29        -8.1372   -1.1446   60.7730 C.3     1  ZINC000790205345   -0.1200
     30 H30        -7.7048    1.9581   61.6529 H       1  ZINC000790205345    0.0700
     31 H31        -7.9433    1.7007   63.3980 H       1  ZINC000790205345    0.0600
     32 H32        -7.1710    0.4379   62.4095 H       1  ZINC000790205345    0.0700
     33 H33       -10.3412    2.0658   63.2953 H       1  ZINC000790205345    0.1300
     34 H34       -12.5484    1.0717   62.8485 H       1  ZINC000790205345    0.1300
     35 H35       -14.2537   -0.0376   60.1321 H       1  ZINC000790205345    0.1000
     36 H36       -12.7337   -0.5980   59.3946 H       1  ZINC000790205345    0.0900
     37 H37       -16.4375   -3.3880   58.2538 H       1  ZINC000790205345    0.0600
     38 H38       -15.3505   -3.4678   56.8466 H       1  ZINC000790205345    0.0800
     39 H39       -14.8981   -4.2742   58.3675 H       1  ZINC000790205345    0.0700
     40 H40       -16.0975   -1.7771   56.1094 H       1  ZINC000790205345    0.0600
     41 H41       -16.7290   -0.7023   57.3800 H       1  ZINC000790205345    0.0700
     42 H42       -15.8142   -0.0224   56.0128 H       1  ZINC000790205345    0.0800
     43 H43       -12.4395   -2.6138   57.8342 H       1  ZINC000790205345    0.1300
     44 H44       -10.5743   -3.0036   56.2763 H       1  ZINC000790205345    0.1300
     45 H45       -10.5464   -1.8881   54.0829 H       1  ZINC000790205345    0.1300
     46 H46       -14.3836    0.1910   52.5898 H       1  ZINC000790205345    0.1000
     47 H47       -13.4899    1.5712   53.3033 H       1  ZINC000790205345    0.1000
     48 H48       -13.6223    0.7813   50.4948 H       1  ZINC000790205345    0.1100
     49 H49       -12.7289    2.1612   51.2082 H       1  ZINC000790205345    0.1100
     50 H50       -14.2652    0.0082   55.0102 H       1  ZINC000790205345    0.1600
     51 H51       -10.6921   -1.9717   60.4913 H       1  ZINC000790205345    0.1300
     52 H52        -7.9363   -0.7084   59.7945 H       1  ZINC000790205345    0.0700
     53 H53        -7.2924   -0.9560   61.4354 H       1  ZINC000790205345    0.0700
     54 H54        -8.2840   -2.2197   60.6683 H       1  ZINC000790205345    0.0700
@<TRIPOS>BOND
     1     1     2    1
     2     1    30    1
     3     1    31    1
     4     1    32    1
     5     2    28   ar
     6     2     3   ar
     7     3     4   ar
     8     3    33    1
     9     4     5   ar
    10     4    34    1
    11     5     6    1
    12     5    27   ar
    13     6     7    1
    14     7     8    1
    15     7    35    1
    16     7    36    1
    17     8     9    2
    18     8    10   am
    19    10    11    1
    20    10    12    1
    21    11    37    1
    22    11    38    1
    23    11    39    1
    24    12    13    1
    25    12    14    1
    26    12    15    1
    27    14    40    1
    28    14    41    1
    29    14    42    1
    30    15    26   ar
    31    15    16   ar
    32    16    17   ar
    33    16    43    1
    34    17    18   ar
    35    17    44    1
    36    18    19   ar
    37    18    45    1
    38    19    20    1
    39    19    26   ar
    40    20    24   am
    41    20    21    1
    42    21    22    1
    43    21    46    1
    44    21    47    1
    45    22    23    1
    46    22    48    1
    47    22    49    1
    48    23    24    1
    49    24    25    2
    50    26    50    1
    51    27    28   ar
    52    27    51    1
    53    28    29    1
    54    29    52    1
    55    29    53    1
    56    29    54    1
@<TRIPOS>SUBSTRUCTURE
     1 ZINC000790205345        1 TEMP              0 ****  ****    0 ROOT


##########                                Name:    ZINC001127302705
##########                DOCK_Rotatable_Bonds:                   9
##########                         Heavy_Atoms:                  28
##########                    Molecular_Weight:             398.892
##########                DOCK_Rotatable_Bonds:                   9
##########                       Formal_Charge:          -0.0200002
##########                     HBond_Acceptors:                   7
##########                        HBond_Donors:                   1
##########                         Heavy_Atoms:                  28
##########                          Grid_Score:          -31.614010
##########                     Grid_vdw_energy:          -30.882507
##########                      Grid_es_energy:           -0.731502
##########           Internal_energy_repulsive:           26.476486

@<TRIPOS>MOLECULE
ZINC001127302705
 51 53 1 0 0
SMALL
USER_CHARGES


@<TRIPOS>ATOM
      1 C1        -13.0949   -0.1548   53.7263 C.3     1  ZINC001127302705   -0.1500
      2 C2        -12.3462    1.0529   53.1588 C.3     1  ZINC001127302705   -0.1400
      3 C3        -10.8679    0.7000   52.9832 C.3     1  ZINC001127302705    0.1800
      4 C4        -10.7404   -0.5257   52.0765 C.3     1  ZINC001127302705   -0.1600
      5 C5        -10.1331    1.8825   52.3485 C.3     1  ZINC001127302705    0.0700
      6 O6         -8.7260    1.7298   52.5450 O.3     1  ZINC001127302705   -0.2800
      7 C7         -7.9120    2.2186   51.5755 C.ar    1  ZINC001127302705    0.3400
      8 N8         -8.0676    3.4625   51.1553 N.ar    1  ZINC001127302705   -0.5300
      9 C9         -7.2978    3.9776   50.2151 C.ar    1  ZINC001127302705    0.1400
     10 C10        -6.2950    3.2292   49.6323 C.ar    1  ZINC001127302705   -0.2000
     11 C11        -6.0982    1.9184   50.0450 C.ar    1  ZINC001127302705   -0.0300
     12 C12        -6.9184    1.4085   51.0373 C.ar    1  ZINC001127302705   -0.1100
     13 Cl13       -6.7176   -0.2240   51.5923 Cl      1  ZINC001127302705   -0.0400
     14 N14       -10.2779    0.4036   54.2910 N.am    1  ZINC001127302705   -0.7100
     15 C15       -10.2039    1.3668   55.2309 C.2     1  ZINC001127302705    0.6200
     16 O16       -10.6281    2.4812   54.9938 O.2     1  ZINC001127302705   -0.5200
     17 C17        -9.6074    1.0685   56.5487 C.2     1  ZINC001127302705   -0.0200
     18 N18        -9.8807    0.0329   57.3171 N.2     1  ZINC001127302705   -0.2500
     19 N19        -9.1806    0.0851   58.3930 N.pl3   1  ZINC001127302705   -0.2800
     20 C20        -9.2285   -0.9038   59.4726 C.3     1  ZINC001127302705    0.1600
     21 C21       -10.5711   -0.8389   60.1540 C.ar    1  ZINC001127302705   -0.1200
     22 C22       -11.3409   -1.9806   60.2748 C.ar    1  ZINC001127302705   -0.1000
     23 C23       -12.5725   -1.9210   60.8998 C.ar    1  ZINC001127302705   -0.1200
     24 C24       -13.0341   -0.7196   61.4043 C.ar    1  ZINC001127302705   -0.1100
     25 C25       -12.2639    0.4220   61.2843 C.ar    1  ZINC001127302705   -0.1200
     26 C26       -11.0304    0.3614   60.6631 C.ar    1  ZINC001127302705   -0.0800
     27 C27        -8.3940    1.1827   58.3854 C.2     1  ZINC001127302705   -0.0200
     28 C28        -8.6294    1.8367   57.2238 C.2     1  ZINC001127302705   -0.1800
     29 H29       -12.6687   -0.4254   54.6923 H       1  ZINC001127302705    0.0500
     30 H30       -14.1481    0.0967   53.8513 H       1  ZINC001127302705    0.0600
     31 H31       -13.0013   -0.9959   53.0394 H       1  ZINC001127302705    0.0500
     32 H32       -12.7724    1.3235   52.1927 H       1  ZINC001127302705    0.0900
     33 H33       -12.4399    1.8941   53.8457 H       1  ZINC001127302705    0.0800
     34 H34       -11.1794   -0.3052   51.1034 H       1  ZINC001127302705    0.0700
     35 H35        -9.6872   -0.7772   51.9514 H       1  ZINC001127302705    0.0500
     36 H36       -11.2638   -1.3682   52.5287 H       1  ZINC001127302705    0.0800
     37 H37       -10.3497    1.9141   51.2807 H       1  ZINC001127302705    0.0800
     38 H38       -10.4665    2.8098   52.8144 H       1  ZINC001127302705    0.0700
     39 H39        -7.4547    4.9979   49.8975 H       1  ZINC001127302705    0.1700
     40 H40        -5.6703    3.6588   48.8632 H       1  ZINC001127302705    0.1500
     41 H41        -5.3207    1.3115   49.6051 H       1  ZINC001127302705    0.1500
     42 H42        -9.9405   -0.4858   54.4805 H       1  ZINC001127302705    0.4100
     43 H43        -9.0788   -1.9010   59.0590 H       1  ZINC001127302705    0.1000
     44 H44        -8.4428   -0.6893   60.1971 H       1  ZINC001127302705    0.1100
     45 H45       -10.9803   -2.9193   59.8807 H       1  ZINC001127302705    0.1200
     46 H46       -13.1742   -2.8130   60.9936 H       1  ZINC001127302705    0.1300
     47 H47       -13.9966   -0.6729   61.8920 H       1  ZINC001127302705    0.1200
     48 H48       -12.6246    1.3606   61.6781 H       1  ZINC001127302705    0.1300
     49 H49       -10.4287    1.2533   60.5693 H       1  ZINC001127302705    0.1300
     50 H50        -7.7024    1.4807   59.1595 H       1  ZINC001127302705    0.1800
     51 H51        -8.1724    2.7553   56.8865 H       1  ZINC001127302705    0.1600
@<TRIPOS>BOND
     1     1     2    1
     2     1    29    1
     3     1    30    1
     4     1    31    1
     5     2     3    1
     6     2    32    1
     7     2    33    1
     8     3     4    1
     9     3     5    1
    10     3    14    1
    11     4    34    1
    12     4    35    1
    13     4    36    1
    14     5     6    1
    15     5    37    1
    16     5    38    1
    17     6     7    1
    18     7    12   ar
    19     7     8   ar
    20     8     9   ar
    21     9    10   ar
    22     9    39    1
    23    10    11   ar
    24    10    40    1
    25    11    12   ar
    26    11    41    1
    27    12    13    1
    28    14    15   am
    29    14    42    1
    30    15    16    2
    31    15    17    1
    32    17    28    1
    33    17    18    2
    34    18    19    1
    35    19    20    1
    36    19    27    1
    37    20    21    1
    38    20    43    1
    39    20    44    1
    40    21    26   ar
    41    21    22   ar
    42    22    23   ar
    43    22    45    1
    44    23    24   ar
    45    23    46    1
    46    24    25   ar
    47    24    47    1
    48    25    26   ar
    49    25    48    1
    50    26    49    1
    51    27    28    2
    52    27    50    1
    53    28    51    1
@<TRIPOS>SUBSTRUCTURE
     1 ZINC001127302705        1 TEMP              0 ****  ****    0 ROOT


##########                                Name:    ZINC001058079801
##########                DOCK_Rotatable_Bonds:                   7
##########                         Heavy_Atoms:                  24
##########                    Molecular_Weight:             349.457
##########                DOCK_Rotatable_Bonds:                   7
##########                       Formal_Charge:           0.0200001
##########                     HBond_Acceptors:                   8
##########                        HBond_Donors:                   0
##########                         Heavy_Atoms:                  24
##########                          Grid_Score:          -31.613705
##########                     Grid_vdw_energy:          -30.616566
##########                      Grid_es_energy:           -0.997138
##########           Internal_energy_repulsive:           23.256098

@<TRIPOS>MOLECULE
ZINC001058079801
 47 49 1 0 0
SMALL
USER_CHARGES


@<TRIPOS>ATOM
      1 C1         -6.5644    0.6289   51.7276 C.3     1  ZINC001058079801   -0.1500
      2 C2         -6.7017    2.1172   51.4000 C.3     1  ZINC001058079801   -0.1200
      3 C3         -5.9592    2.4233   50.0978 C.3     1  ZINC001058079801   -0.0300
      4 C4         -4.5020    2.6662   50.3956 C.2     1  ZINC001058079801    0.2900
      5 N5         -4.1370    3.4375   51.3782 N.2     1  ZINC001058079801   -0.4800
      6 S6         -2.4376    3.4350   51.3603 S.3     1  ZINC001058079801    0.1900
      7 C7         -2.3159    2.3764   50.0063 C.2     1  ZINC001058079801    0.2700
      8 N8         -1.1619    1.9113   49.4020 N.3     1  ZINC001058079801   -0.4300
      9 C9         -0.6428    2.8885   48.4366 C.3     1  ZINC001058079801    0.0700
     10 C10         0.7060    2.4073   47.8969 C.3     1  ZINC001058079801   -0.1300
     11 C11         0.5239    1.0440   47.2238 C.3     1  ZINC001058079801    0.1300
     12 N12         1.8221    0.5515   46.7566 N.am    1  ZINC001058079801   -0.6100
     13 C13         2.9022    0.3093   47.7161 C.3     1  ZINC001058079801    0.0700
     14 C14         2.0227    0.3212   45.4438 C.2     1  ZINC001058079801    0.5200
     15 O15         3.0979   -0.0850   45.0568 O.2     1  ZINC001058079801   -0.5300
     16 C16         0.9110    0.5687   44.4569 C.3     1  ZINC001058079801   -0.0600
     17 C17         0.7667    2.0505   44.2240 C.2     1  ZINC001058079801   -0.1900
     18 C18        -0.2855    2.8450   44.5344 C.2     1  ZINC001058079801   -0.0400
     19 O19         0.0442    4.0828   44.1397 O.3     1  ZINC001058079801    0.1000
     20 N20         1.1461    4.1122   43.6425 N.2     1  ZINC001058079801   -0.3600
     21 C21         1.7008    2.9346   43.6366 C.2     1  ZINC001058079801    0.0000
     22 C22        -0.0630    0.0576   48.2372 C.3     1  ZINC001058079801   -0.1200
     23 C23        -1.3895    0.6069   48.7670 C.3     1  ZINC001058079801    0.0400
     24 N24        -3.5601    2.1021   49.6756 N.2     1  ZINC001058079801   -0.5300
     25 H25        -7.0934    0.4108   52.6553 H       1  ZINC001058079801    0.0600
     26 H26        -6.9920    0.0378   50.9178 H       1  ZINC001058079801    0.0600
     27 H27        -5.5100    0.3781   51.8429 H       1  ZINC001058079801    0.0600
     28 H28        -7.7562    2.3680   51.2846 H       1  ZINC001058079801    0.0700
     29 H29        -6.2740    2.7084   52.2098 H       1  ZINC001058079801    0.0700
     30 H30        -6.0548    1.5771   49.4174 H       1  ZINC001058079801    0.1000
     31 H31        -6.3884    3.3119   49.6350 H       1  ZINC001058079801    0.0900
     32 H32        -1.3475    2.9935   47.6117 H       1  ZINC001058079801    0.0600
     33 H33        -0.5141    3.8523   48.9290 H       1  ZINC001058079801    0.1000
     34 H34         1.0836    3.1251   47.1687 H       1  ZINC001058079801    0.0800
     35 H35         1.4152    2.3152   48.7194 H       1  ZINC001058079801    0.0800
     36 H36        -0.1543    1.1439   46.3764 H       1  ZINC001058079801    0.1000
     37 H37         2.8463   -0.7186   48.0744 H       1  ZINC001058079801    0.0600
     38 H38         3.8639    0.4727   47.2296 H       1  ZINC001058079801    0.0800
     39 H39         2.8003    0.9937   48.5584 H       1  ZINC001058079801    0.0800
     40 H40         1.1452    0.0738   43.5144 H       1  ZINC001058079801    0.1100
     41 H41        -0.0227    0.1706   44.8541 H       1  ZINC001058079801    0.1100
     42 H42        -1.2080    2.5411   45.0065 H       1  ZINC001058079801    0.2200
     43 H43         2.6781    2.6816   43.2528 H       1  ZINC001058079801    0.1900
     44 H44        -0.2348   -0.9034   47.7522 H       1  ZINC001058079801    0.0900
     45 H45         0.6340   -0.0715   49.0652 H       1  ZINC001058079801    0.0800
     46 H46        -1.8031   -0.0865   49.4995 H       1  ZINC001058079801    0.1000
     47 H47        -2.0906    0.7227   47.9405 H       1  ZINC001058079801    0.0700
@<TRIPOS>BOND
     1     1     2    1
     2     1    25    1
     3     1    26    1
     4     1    27    1
     5     2     3    1
     6     2    28    1
     7     2    29    1
     8     3     4    1
     9     3    30    1
    10     3    31    1
    11     4    24    1
    12     4     5    2
    13     5     6    1
    14     6     7    1
    15     7     8    1
    16     7    24    2
    17     8    23    1
    18     8     9    1
    19     9    10    1
    20     9    32    1
    21     9    33    1
    22    10    11    1
    23    10    34    1
    24    10    35    1
    25    11    12    1
    26    11    22    1
    27    11    36    1
    28    12    13    1
    29    12    14   am
    30    13    37    1
    31    13    38    1
    32    13    39    1
    33    14    15    2
    34    14    16    1
    35    16    17    1
    36    16    40    1
    37    16    41    1
    38    17    21    1
    39    17    18    2
    40    18    19    1
    41    18    42    1
    42    19    20    1
    43    20    21    2
    44    21    43    1
    45    22    23    1
    46    22    44    1
    47    22    45    1
    48    23    46    1
    49    23    47    1
@<TRIPOS>SUBSTRUCTURE
     1 ZINC001058079801        1 TEMP              0 ****  ****    0 ROOT


##########                                Name:    ZINC001077846158
##########                DOCK_Rotatable_Bonds:                   7
##########                         Heavy_Atoms:                  24
##########                    Molecular_Weight:             350.442
##########                DOCK_Rotatable_Bonds:                   7
##########                       Formal_Charge:          -0.0600002
##########                     HBond_Acceptors:                   8
##########                        HBond_Donors:                   2
##########                         Heavy_Atoms:                  24
##########                          Grid_Score:          -31.606276
##########                     Grid_vdw_energy:          -28.923134
##########                      Grid_es_energy:           -2.683141
##########           Internal_energy_repulsive:            7.639894

@<TRIPOS>MOLECULE
ZINC001077846158
 46 48 1 0 0
SMALL
USER_CHARGES


@<TRIPOS>ATOM
      1 C1         -8.4930    2.9059   55.5323 C.3     1  ZINC001077846158   -0.0700
      2 C2         -8.7596    2.0759   54.3030 C.2     1  ZINC001077846158    0.0100
      3 C3         -7.9206    1.8984   53.2690 C.2     1  ZINC001077846158   -0.0500
      4 C4         -6.5422    2.4897   53.1230 C.3     1  ZINC001077846158    0.1300
      5 N5         -5.9305    2.0042   51.8788 N.3     1  ZINC001077846158   -0.5100
      6 C6         -6.4957    2.7066   50.6984 C.3     1  ZINC001077846158    0.0000
      7 C7         -5.4215    2.4823   49.6045 C.3     1  ZINC001077846158    0.1000
      8 H8         -5.5294    1.4954   49.1545 H       1  ZINC001077846158    0.0800
      9 O9         -5.4957    3.5021   48.6063 O.3     1  ZINC001077846158   -0.5600
     10 C10        -4.0968    2.5810   50.3955 C.3     1  ZINC001077846158    0.1400
     11 H11        -3.6787    3.5839   50.3097 H       1  ZINC001077846158    0.1100
     12 N12        -3.1375    1.5875   49.9067 N.am    1  ZINC001077846158   -0.7000
     13 C13        -1.8410    1.9218   49.7520 C.2     1  ZINC001077846158    0.6000
     14 O14        -1.4678    3.0486   50.0170 O.2     1  ZINC001077846158   -0.5300
     15 C15        -0.8764    0.9226   49.2624 C.2     1  ZINC001077846158    0.0100
     16 C16        -1.2272   -0.3368   48.9177 C.2     1  ZINC001077846158   -0.2300
     17 S17         0.1694   -1.1774   48.4030 S.3     1  ZINC001077846158    0.2300
     18 C18         1.1407    0.2002   48.6774 C.2     1  ZINC001077846158    0.0300
     19 C19         2.6272    0.2638   48.4376 C.3     1  ZINC001077846158   -0.0200
     20 C20         3.0034   -0.6978   47.3087 C.3     1  ZINC001077846158   -0.1500
     21 C21         3.0199    1.6896   48.0454 C.3     1  ZINC001077846158   -0.1500
     22 N22         0.4261    1.1777   49.1119 N.2     1  ZINC001077846158   -0.4500
     23 C23        -4.4784    2.2844   51.8576 C.3     1  ZINC001077846158    0.0300
     24 O24        -8.5433    1.0919   52.3872 O.3     1  ZINC001077846158   -0.2100
     25 C25        -9.7472    0.7886   52.8903 C.2     1  ZINC001077846158    0.1800
     26 N26        -9.8780    1.3747   54.0461 N.2     1  ZINC001077846158   -0.4900
     27 H27        -8.0217    2.2853   56.2945 H       1  ZINC001077846158    0.0800
     28 H28        -7.8303    3.7324   55.2759 H       1  ZINC001077846158    0.0700
     29 H29        -9.4341    3.3001   55.9156 H       1  ZINC001077846158    0.0700
     30 H30        -6.6146    3.5769   53.0921 H       1  ZINC001077846158    0.0600
     31 H31        -5.9268    2.1905   53.9713 H       1  ZINC001077846158    0.1100
     32 H32        -7.4448    2.2596   50.4028 H       1  ZINC001077846158    0.0900
     33 H33        -6.6178    3.7697   50.9054 H       1  ZINC001077846158    0.0600
     34 H34        -6.1222    3.3112   47.8949 H       1  ZINC001077846158    0.3900
     35 H35        -3.4354    0.6891   49.6943 H       1  ZINC001077846158    0.4100
     36 H36        -2.2262   -0.7449   48.9605 H       1  ZINC001077846158    0.1900
     37 H37         3.1546   -0.0208   49.3482 H       1  ZINC001077846158    0.1000
     38 H38         2.7236   -1.7135   47.5882 H       1  ZINC001077846158    0.0600
     39 H39         2.4760   -0.4132   46.3981 H       1  ZINC001077846158    0.0600
     40 H40         4.0785   -0.6517   47.1353 H       1  ZINC001077846158    0.0700
     41 H41         2.7520    2.3746   48.8497 H       1  ZINC001077846158    0.0600
     42 H42         4.0951    1.7356   47.8719 H       1  ZINC001077846158    0.0700
     43 H43         2.4926    1.9742   47.1349 H       1  ZINC001077846158    0.0600
     44 H44        -4.2582    3.1503   52.4819 H       1  ZINC001077846158    0.0600
     45 H45        -3.9273    1.4150   52.2162 H       1  ZINC001077846158    0.0900
     46 H46       -10.4859    0.1583   52.4175 H       1  ZINC001077846158    0.2500
@<TRIPOS>BOND
     1     1     2    1
     2     1    27    1
     3     1    28    1
     4     1    29    1
     5     2    26    1
     6     2     3    2
     7     3     4    1
     8     3    24    1
     9     4     5    1
    10     4    30    1
    11     4    31    1
    12     5    23    1
    13     5     6    1
    14     6     7    1
    15     6    32    1
    16     6    33    1
    17     7     8    1
    18     7     9    1
    19     7    10    1
    20     9    34    1
    21    10    11    1
    22    10    12    1
    23    10    23    1
    24    12    13   am
    25    12    35    1
    26    13    14    2
    27    13    15    1
    28    15    22    1
    29    15    16    2
    30    16    17    1
    31    16    36    1
    32    17    18    1
    33    18    19    1
    34    18    22    2
    35    19    20    1
    36    19    21    1
    37    19    37    1
    38    20    38    1
    39    20    39    1
    40    20    40    1
    41    21    41    1
    42    21    42    1
    43    21    43    1
    44    23    44    1
    45    23    45    1
    46    24    25    1
    47    25    26    2
    48    25    46    1
@<TRIPOS>SUBSTRUCTURE
     1 ZINC001077846158        1 TEMP              0 ****  ****    0 ROOT


##########                                Name:    ZINC001574157642
##########                DOCK_Rotatable_Bonds:                   9
##########                         Heavy_Atoms:                  28
##########                    Molecular_Weight:             387.445
##########                DOCK_Rotatable_Bonds:                   9
##########                       Formal_Charge:          -0.0400004
##########                     HBond_Acceptors:                  11
##########                        HBond_Donors:                   4
##########                         Heavy_Atoms:                  28
##########                          Grid_Score:          -31.593491
##########                     Grid_vdw_energy:          -30.102154
##########                      Grid_es_energy:           -1.491337
##########           Internal_energy_repulsive:           10.131176

@<TRIPOS>MOLECULE
ZINC001574157642
 53 55 1 0 0
SMALL
USER_CHARGES


@<TRIPOS>ATOM
      1 C1        -12.4124    0.1975   53.2005 C.3     1  ZINC001574157642   -0.1400
      2 C2        -10.9754    0.2056   52.6751 C.3     1  ZINC001574157642   -0.0900
      3 C3        -10.8876   -0.6601   51.4167 C.3     1  ZINC001574157642   -0.1500
      4 C4        -10.5641    1.6400   52.3372 C.3     1  ZINC001574157642   -0.1300
      5 C5         -9.5392    2.1315   53.3615 C.3     1  ZINC001574157642    0.1300
      6 H6         -9.2102    1.2942   53.9768 H       1  ZINC001574157642    0.1100
      7 C7        -10.1794    3.1983   54.2519 C.3     1  ZINC001574157642    0.1100
      8 N8         -9.2473    3.5660   55.3206 N.pl3   1  ZINC001574157642   -0.7100
      9 C9         -9.0590    2.7141   56.4018 C.ar    1  ZINC001574157642    0.3700
     10 C10        -8.1547    3.0533   57.4067 C.ar    1  ZINC001574157642    0.0000
     11 N11        -7.9751    2.2453   58.4326 N.ar    1  ZINC001574157642   -0.3700
     12 C12        -8.6573    1.1060   58.5092 C.ar    1  ZINC001574157642    0.0800
     13 C13        -8.4558    0.1964   59.6641 C.2     1  ZINC001574157642    0.2300
     14 N14        -7.9739    0.5211   60.8476 N.2     1  ZINC001574157642   -0.2700
     15 N15        -7.9566   -0.5445   61.5721 N.pl3   1  ZINC001574157642   -0.2300
     16 N16        -8.4118   -1.5338   60.8857 N.2     1  ZINC001574157642   -0.0400
     17 N17        -8.7338   -1.1144   59.7092 N.2     1  ZINC001574157642   -0.2600
     18 C18        -9.5614    0.7674   57.5050 C.ar    1  ZINC001574157642    0.1600
     19 N19        -9.7442    1.5799   56.4801 N.ar    1  ZINC001574157642   -0.5000
     20 N20        -8.3871    2.7061   52.6624 N.am    1  ZINC001574157642   -0.7300
     21 C21        -7.3433    1.9224   52.3263 C.2     1  ZINC001574157642    0.5200
     22 O22        -7.3572    0.7419   52.6039 O.2     1  ZINC001574157642   -0.5100
     23 C23        -6.1589    2.5131   51.6057 C.3     1  ZINC001574157642   -0.1300
     24 H24        -6.4153    3.5044   51.2321 H       1  ZINC001574157642    0.1100
     25 C25        -5.7662    1.6069   50.4326 C.3     1  ZINC001574157642   -0.1000
     26 C26        -4.6857    2.3172   49.6133 C.3     1  ZINC001574157642   -0.1400
     27 C27        -3.6045    2.8241   50.5239 C.2     1  ZINC001574157642    0.5200
     28 O28        -2.5335    3.1169   50.0358 O.2     1  ZINC001574157642   -0.5500
     29 N29        -3.7591    2.9700   51.8404 N.am    1  ZINC001574157642   -0.7200
     30 C30        -4.9737    2.6176   52.5663 C.3     1  ZINC001574157642    0.1200
     31 H31       -13.0805    0.5969   52.4375 H       1  ZINC001574157642    0.0400
     32 H32       -12.7054   -0.8243   53.4413 H       1  ZINC001574157642    0.0500
     33 H33       -12.4750    0.8142   54.0971 H       1  ZINC001574157642    0.0700
     34 H34       -10.3073   -0.1937   53.4382 H       1  ZINC001574157642    0.0700
     35 H35       -11.5557   -0.2607   50.6537 H       1  ZINC001574157642    0.0500
     36 H36        -9.8638   -0.6543   51.0424 H       1  ZINC001574157642    0.0500
     37 H37       -11.1806   -1.6819   51.6576 H       1  ZINC001574157642    0.0500
     38 H38       -10.1231    1.6663   51.3407 H       1  ZINC001574157642    0.0700
     39 H39       -11.4419    2.2855   52.3632 H       1  ZINC001574157642    0.0800
     40 H40       -10.4120    4.0792   53.6536 H       1  ZINC001574157642    0.0800
     41 H41       -11.0965    2.8038   54.6895 H       1  ZINC001574157642    0.0900
     42 H42        -8.7615    4.4043   55.2734 H       1  ZINC001574157642    0.4100
     43 H43        -7.6007    3.9784   57.3447 H       1  ZINC001574157642    0.1700
     44 H44        -7.6483   -0.5935   62.4905 H       1  ZINC001574157642    0.4800
     45 H45       -10.1153   -0.1577   57.5664 H       1  ZINC001574157642    0.1800
     46 H46        -8.3754    3.6505   52.4414 H       1  ZINC001574157642    0.4000
     47 H47        -5.3769    0.6625   50.8128 H       1  ZINC001574157642    0.0800
     48 H48        -6.6381    1.4194   49.8059 H       1  ZINC001574157642    0.0900
     49 H49        -4.2566    1.6174   48.8961 H       1  ZINC001574157642    0.1100
     50 H50        -5.1305    3.1558   49.0774 H       1  ZINC001574157642    0.1000
     51 H51        -3.0175    3.3357   52.3474 H       1  ZINC001574157642    0.4000
     52 H52        -5.1788    3.3807   53.3171 H       1  ZINC001574157642    0.0800
     53 H53        -4.8312    1.6575   53.0623 H       1  ZINC001574157642    0.0700
@<TRIPOS>BOND
     1     1     2    1
     2     1    31    1
     3     1    32    1
     4     1    33    1
     5     2     3    1
     6     2     4    1
     7     2    34    1
     8     3    35    1
     9     3    36    1
    10     3    37    1
    11     4     5    1
    12     4    38    1
    13     4    39    1
    14     5     6    1
    15     5     7    1
    16     5    20    1
    17     7     8    1
    18     7    40    1
    19     7    41    1
    20     8     9    1
    21     8    42    1
    22     9    19   ar
    23     9    10   ar
    24    10    11   ar
    25    10    43    1
    26    11    12   ar
    27    12    13    1
    28    12    18   ar
    29    13    17    1
    30    13    14    2
    31    14    15    1
    32    15    16    1
    33    15    44    1
    34    16    17    2
    35    18    19   ar
    36    18    45    1
    37    20    21   am
    38    20    46    1
    39    21    22    2
    40    21    23    1
    41    23    24    1
    42    23    30    1
    43    23    25    1
    44    25    26    1
    45    25    47    1
    46    25    48    1
    47    26    27    1
    48    26    49    1
    49    26    50    1
    50    27    28    2
    51    27    29   am
    52    29    30    1
    53    29    51    1
    54    30    52    1
    55    30    53    1
@<TRIPOS>SUBSTRUCTURE
     1 ZINC001574157642        1 TEMP              0 ****  ****    0 ROOT


##########                                Name:    ZINC000590699876
##########                DOCK_Rotatable_Bonds:                   9
##########                         Heavy_Atoms:                  30
##########                    Molecular_Weight:              421.54
##########                DOCK_Rotatable_Bonds:                   9
##########                       Formal_Charge:          -0.0300004
##########                     HBond_Acceptors:                   9
##########                        HBond_Donors:                   1
##########                         Heavy_Atoms:                  30
##########                          Grid_Score:          -31.570570
##########                     Grid_vdw_energy:          -30.387609
##########                      Grid_es_energy:           -1.182961
##########           Internal_energy_repulsive:          105.679726

@<TRIPOS>MOLECULE
ZINC000590699876
 65 67 1 0 0
SMALL
USER_CHARGES


@<TRIPOS>ATOM
      1 C1         -7.7989    2.0574   58.6618 C.3     1  ZINC000590699876   -0.1700
      2 C2         -7.6810    2.9143   57.4278 C.2     1  ZINC000590699876    0.5100
      3 O3         -7.4147    4.0929   57.5312 O.2     1  ZINC000590699876   -0.5500
      4 N4         -7.8715    2.3708   56.2093 N.am    1  ZINC000590699876   -0.7200
      5 C5         -7.7553    3.2035   55.0095 C.3     1  ZINC000590699876    0.1100
      6 C6         -9.0233    3.9961   54.8231 C.2     1  ZINC000590699876    0.5300
      7 O7         -9.6602    4.3573   55.7900 O.2     1  ZINC000590699876   -0.5200
      8 N8         -9.4497    4.3034   53.5821 N.am    1  ZINC000590699876   -0.6000
      9 C9        -10.6668    5.0692   53.2567 C.3     1  ZINC000590699876    0.1000
     10 C10       -10.3943    5.6702   51.8552 C.3     1  ZINC000590699876   -0.1300
     11 C11        -9.6102    4.5198   51.1701 C.3     1  ZINC000590699876   -0.1300
     12 C12        -8.7748    3.9358   52.3288 C.3     1  ZINC000590699876    0.1200
     13 H13        -8.7296    2.8501   52.2425 H       1  ZINC000590699876    0.1000
     14 C14        -7.3822    4.5106   52.2971 C.2     1  ZINC000590699876    0.5100
     15 O15        -7.0571    5.3572   53.1025 O.2     1  ZINC000590699876   -0.5200
     16 N16        -6.4978    4.0841   51.3738 N.am    1  ZINC000590699876   -0.6100
     17 C17        -5.1313    4.6262   51.3303 C.3     1  ZINC000590699876    0.1000
     18 C18        -4.1434    3.4549   51.3119 C.3     1  ZINC000590699876    0.0400
     19 N19        -4.4865    2.5463   50.2098 N.3     1  ZINC000590699876   -0.5200
     20 C20        -3.4645    1.5033   50.0498 C.3     1  ZINC000590699876    0.0400
     21 C21        -2.6506    1.7831   48.8129 C.2     1  ZINC000590699876    0.5200
     22 O22        -2.7988    2.8264   48.2125 O.2     1  ZINC000590699876   -0.5100
     23 N23        -1.7578    0.8739   48.3738 N.am    1  ZINC000590699876   -0.6100
     24 C24        -1.5668   -0.3945   49.0903 C.3     1  ZINC000590699876    0.1100
     25 C25        -0.0784   -0.5593   49.4129 C.3     1  ZINC000590699876   -0.1400
     26 C26         0.7356   -0.4376   48.1227 C.3     1  ZINC000590699876   -0.1200
     27 C27         0.5243    0.9501   47.5132 C.3     1  ZINC000590699876   -0.1300
     28 C28        -0.9613    1.1297   47.1658 C.3     1  ZINC000590699876    0.1400
     29 H29        -1.2409    0.4261   46.3816 H       1  ZINC000590699876    0.0700
     30 C30        -1.2058    2.5605   46.6823 C.3     1  ZINC000590699876   -0.1400
     31 C31        -5.8171    1.9545   50.4019 C.3     1  ZINC000590699876    0.0400
     32 C32        -6.8719    3.0597   50.3869 C.3     1  ZINC000590699876    0.1200
     33 H33        -7.6132    2.6666   59.5463 H       1  ZINC000590699876    0.1000
     34 H34        -8.8019    1.6343   58.7160 H       1  ZINC000590699876    0.0900
     35 H35        -7.0667    1.2512   58.6156 H       1  ZINC000590699876    0.0900
     36 H36        -8.0856    1.4284   56.1266 H       1  ZINC000590699876    0.4100
     37 H37        -6.9130    3.8864   55.1214 H       1  ZINC000590699876    0.1000
     38 H38        -7.5936    2.5667   54.1397 H       1  ZINC000590699876    0.1000
     39 H39       -11.5332    4.4086   53.2242 H       1  ZINC000590699876    0.0800
     40 H40       -10.8215    5.8637   53.9866 H       1  ZINC000590699876    0.0800
     41 H41       -11.3270    5.8744   51.3295 H       1  ZINC000590699876    0.0900
     42 H42        -9.7835    6.5701   51.9280 H       1  ZINC000590699876    0.0800
     43 H43       -10.2944    3.7726   50.7681 H       1  ZINC000590699876    0.1000
     44 H44        -8.9597    4.9094   50.3871 H       1  ZINC000590699876    0.0900
     45 H45        -5.0041    5.2267   50.4296 H       1  ZINC000590699876    0.0800
     46 H46        -4.9533    5.2416   52.2122 H       1  ZINC000590699876    0.0900
     47 H47        -3.1317    3.8347   51.1688 H       1  ZINC000590699876    0.0900
     48 H48        -4.1997    2.9167   52.2581 H       1  ZINC000590699876    0.0400
     49 H49        -2.8105    1.4987   50.9218 H       1  ZINC000590699876    0.1000
     50 H50        -3.9490    0.5316   49.9540 H       1  ZINC000590699876    0.0600
     51 H51        -2.1420   -0.3813   50.0161 H       1  ZINC000590699876    0.0800
     52 H52        -1.8987   -1.2219   48.4633 H       1  ZINC000590699876    0.0700
     53 H53         0.2305    0.2174   50.1125 H       1  ZINC000590699876    0.0700
     54 H54         0.0909   -1.5395   49.8588 H       1  ZINC000590699876    0.0800
     55 H55         1.7931   -0.5791   48.3458 H       1  ZINC000590699876    0.0700
     56 H56         0.4093   -1.1990   47.4143 H       1  ZINC000590699876    0.0600
     57 H57         0.8275    1.7127   48.2307 H       1  ZINC000590699876    0.0700
     58 H58         1.1225    1.0443   46.6068 H       1  ZINC000590699876    0.0700
     59 H59        -0.5561    2.7730   45.8332 H       1  ZINC000590699876    0.0400
     60 H60        -2.2471    2.6687   46.3790 H       1  ZINC000590699876    0.0700
     61 H61        -0.9881    3.2592   47.4901 H       1  ZINC000590699876    0.0700
     62 H62        -6.0195    1.2459   49.5986 H       1  ZINC000590699876    0.1100
     63 H63        -5.8502    1.4370   51.3607 H       1  ZINC000590699876    0.0300
     64 H64        -7.8450    2.6407   50.6425 H       1  ZINC000590699876    0.0900
     65 H65        -6.9138    3.5124   49.3962 H       1  ZINC000590699876    0.0800
@<TRIPOS>BOND
     1     1     2    1
     2     1    33    1
     3     1    34    1
     4     1    35    1
     5     2     3    2
     6     2     4   am
     7     4     5    1
     8     4    36    1
     9     5     6    1
    10     5    37    1
    11     5    38    1
    12     6     7    2
    13     6     8   am
    14     8    12    1
    15     8     9    1
    16     9    10    1
    17     9    39    1
    18     9    40    1
    19    10    11    1
    20    10    41    1
    21    10    42    1
    22    11    12    1
    23    11    43    1
    24    11    44    1
    25    12    13    1
    26    12    14    1
    27    14    15    2
    28    14    16   am
    29    16    32    1
    30    16    17    1
    31    17    18    1
    32    17    45    1
    33    17    46    1
    34    18    19    1
    35    18    47    1
    36    18    48    1
    37    19    20    1
    38    19    31    1
    39    20    21    1
    40    20    49    1
    41    20    50    1
    42    21    22    2
    43    21    23   am
    44    23    28    1
    45    23    24    1
    46    24    25    1
    47    24    51    1
    48    24    52    1
    49    25    26    1
    50    25    53    1
    51    25    54    1
    52    26    27    1
    53    26    55    1
    54    26    56    1
    55    27    28    1
    56    27    57    1
    57    27    58    1
    58    28    29    1
    59    28    30    1
    60    30    59    1
    61    30    60    1
    62    30    61    1
    63    31    32    1
    64    31    62    1
    65    31    63    1
    66    32    64    1
    67    32    65    1
@<TRIPOS>SUBSTRUCTURE
     1 ZINC000590699876        1 TEMP              0 ****  ****    0 ROOT


##########                                Name:    ZINC000355549087
##########                DOCK_Rotatable_Bonds:                   9
##########                         Heavy_Atoms:                  23
##########                    Molecular_Weight:             336.415
##########                DOCK_Rotatable_Bonds:                   9
##########                       Formal_Charge:        -9.53674e-07
##########                     HBond_Acceptors:                   8
##########                        HBond_Donors:                   4
##########                         Heavy_Atoms:                  23
##########                          Grid_Score:          -31.552225
##########                     Grid_vdw_energy:          -30.976059
##########                      Grid_es_energy:           -0.576166
##########           Internal_energy_repulsive:           12.383932

@<TRIPOS>MOLECULE
ZINC000355549087
 43 44 1 0 0
SMALL
USER_CHARGES


@<TRIPOS>ATOM
      1 C1         -0.6219   -0.2896   45.0556 C.3     1  <0>        -0.1500
      2 C2          0.1770    0.8055   45.7650 C.3     1  <0>        -0.1200
      3 C3         -0.7567    1.6144   46.6677 C.3     1  <0>        -0.1000
      4 H4         -1.6233    1.9421   46.0934 H       1  <0>         0.0800
      5 C5         -0.0115    2.8362   47.2084 C.3     1  <0>        -0.1500
      6 C6         -1.2196    0.7411   47.8358 C.3     1  <0>         0.0900
      7 H7         -1.6888   -0.1636   47.4493 H       1  <0>         0.1000
      8 O8         -0.0936    0.3872   48.6412 O.3     1  <0>        -0.3500
      9 C9          0.0607   -1.0197   48.8383 C.3     1  <0>         0.0200
     10 C10        -2.2143    1.5054   48.6708 C.2     1  <0>         0.5100
     11 O11        -2.9918    2.2697   48.1395 O.2     1  <0>        -0.4800
     12 N12        -2.2399    1.3399   50.0082 N.am    1  <0>        -0.6200
     13 C13        -3.1583    2.0435   50.7780 C.2     1  <0>         0.2400
     14 N14        -4.3149    1.5919   51.1448 N.2     1  <0>        -0.5000
     15 C15        -5.0686    2.3986   51.8803 C.2     1  <0>         0.1700
     16 C16        -6.4168    2.0166   52.3730 C.2     1  <0>        -0.1100
     17 C17        -7.0947    2.6002   53.4047 C.2     1  <0>         0.0600
     18 N18        -8.2874    1.9719   53.5458 N.pl3   1  <0>        -0.5400
     19 C19        -8.3799    0.9766   52.5995 C.2     1  <0>        -0.0600
     20 C20        -9.5143    0.0646   52.4150 C.2     1  <0>         0.5900
     21 N21       -10.6871    0.3149   53.0301 N.am    1  <0>        -0.8600
     22 O22        -9.3962   -0.9179   51.7067 O.2     1  <0>        -0.5300
     23 C23        -7.2315    0.9909   51.8580 C.2     1  <0>        -0.0600
     24 C24        -4.5061    3.5923   52.1414 C.2     1  <0>        -0.3200
     25 S25        -2.9177    3.6246   51.3806 S.3     1  <0>         0.2500
     26 H26         0.0433   -0.8659   44.4125 H       1  <0>         0.0600
     27 H27        -1.0720   -0.9494   45.7972 H       1  <0>         0.0600
     28 H28        -1.4063    0.1665   44.4514 H       1  <0>         0.0600
     29 H29         0.9613    0.3495   46.3692 H       1  <0>         0.0600
     30 H30         0.6270    1.4654   45.0233 H       1  <0>         0.0700
     31 H31         0.8551    2.5084   47.7827 H       1  <0>         0.0700
     32 H32         0.3183    3.4583   46.3762 H       1  <0>         0.0600
     33 H33        -0.6767    3.4124   47.8514 H       1  <0>         0.0500
     34 H34         0.8757   -1.2012   49.5390 H       1  <0>         0.0900
     35 H35        -0.8637   -1.4338   49.2411 H       1  <0>         0.0500
     36 H36         0.2878   -1.4974   47.8852 H       1  <0>         0.0500
     37 H37        -1.6173    0.7295   50.4333 H       1  <0>         0.4200
     38 H38        -6.7403    3.4238   54.0068 H       1  <0>         0.1800
     39 H39        -8.9647    2.1880   54.2057 H       1  <0>         0.4200
     40 H40       -11.4374   -0.2875   52.9072 H       1  <0>         0.4000
     41 H41       -10.7809    1.0973   53.5957 H       1  <0>         0.4100
     42 H42        -6.9916    0.3339   51.0351 H       1  <0>         0.1500
     43 H43        -4.9493    4.3898   52.7193 H       1  <0>         0.1800
@<TRIPOS>BOND
     1     1     2    1
     2     1    26    1
     3     1    27    1
     4     1    28    1
     5     2     3    1
     6     2    29    1
     7     2    30    1
     8     3     4    1
     9     3     5    1
    10     3     6    1
    11     5    31    1
    12     5    32    1
    13     5    33    1
    14     6     7    1
    15     6     8    1
    16     6    10    1
    17     8     9    1
    18     9    34    1
    19     9    35    1
    20     9    36    1
    21    10    11    2
    22    10    12   am
    23    12    13    1
    24    12    37    1
    25    13    25    1
    26    13    14    2
    27    14    15    1
    28    15    16    1
    29    15    24    2
    30    16    23    1
    31    16    17    2
    32    17    18    1
    33    17    38    1
    34    18    19    1
    35    18    39    1
    36    19    20    1
    37    19    23    2
    38    20    21   am
    39    20    22    2
    40    21    40    1
    41    21    41    1
    42    23    42    1
    43    24    25    1
    44    24    43    1
@<TRIPOS>SUBSTRUCTURE
     1 <0>         1 TEMP              0 ****  ****    0 ROOT


##########                                Name:    ZINC000171059239
##########                DOCK_Rotatable_Bonds:                   8
##########                         Heavy_Atoms:                  25
##########                    Molecular_Weight:              333.39
##########                DOCK_Rotatable_Bonds:                   8
##########                       Formal_Charge:         1.10269e-06
##########                     HBond_Acceptors:                   5
##########                        HBond_Donors:                   4
##########                         Heavy_Atoms:                  25
##########                          Grid_Score:          -31.552170
##########                     Grid_vdw_energy:          -30.706322
##########                      Grid_es_energy:           -0.845848
##########           Internal_energy_repulsive:            6.389066

@<TRIPOS>MOLECULE
ZINC000171059239
 44 46 1 0 0
SMALL
USER_CHARGES


@<TRIPOS>ATOM
      1 N1        -11.1948   -0.0578   52.4691 N.am    1  ZINC000171059239   -0.8500
      2 C2         -9.8594   -0.1811   52.3362 C.2     1  ZINC000171059239    0.5600
      3 O3         -9.3524   -1.2850   52.2916 O.2     1  ZINC000171059239   -0.5400
      4 C4         -9.0110    1.0263   52.2450 C.ar    1  ZINC000171059239   -0.1400
      5 C5         -9.5921    2.2948   52.2718 C.ar    1  ZINC000171059239   -0.0900
      6 C6         -8.7946    3.4176   52.1866 C.ar    1  ZINC000171059239   -0.1200
      7 C7         -7.4219    3.2877   52.0744 C.ar    1  ZINC000171059239   -0.0800
      8 C8         -6.8393    2.0328   52.0467 C.ar    1  ZINC000171059239   -0.0900
      9 C9         -5.3432    1.9009   51.9238 C.3     1  ZINC000171059239   -0.0900
     10 C10        -4.9560    1.8443   50.4447 C.3     1  ZINC000171059239    0.1400
     11 N11        -3.5015    1.7162   50.3253 N.am    1  ZINC000171059239   -0.7400
     12 C12        -2.8735    2.1684   49.2218 C.2     1  ZINC000171059239    0.7000
     13 O13        -3.5140    2.6839   48.3261 O.2     1  ZINC000171059239   -0.5700
     14 N14        -1.5356    2.0491   49.1112 N.am    1  ZINC000171059239   -0.6800
     15 C15        -0.8851    2.5176   47.9680 C.ar    1  ZINC000171059239    0.1700
     16 C16        -0.6478    1.6522   46.8790 C.ar    1  ZINC000171059239   -0.0600
     17 C17        -1.0550    0.3094   46.9138 C.ar    1  ZINC000171059239   -0.1100
     18 C18        -0.8098   -0.4972   45.8445 C.ar    1  ZINC000171059239   -0.1100
     19 C19        -0.1589   -0.0094   44.7131 C.ar    1  ZINC000171059239   -0.1200
     20 C20         0.2500    1.2869   44.6444 C.ar    1  ZINC000171059239   -0.1000
     21 C21         0.0137    2.1493   45.7290 C.ar    1  ZINC000171059239   -0.0400
     22 C22         0.4214    3.4935   45.6927 C.ar    1  ZINC000171059239   -0.1200
     23 C23         0.1790    4.3065   46.7577 C.ar    1  ZINC000171059239   -0.0900
     24 C24        -0.4740    3.8308   47.8908 C.ar    1  ZINC000171059239   -0.1200
     25 C25        -7.6247    0.9024   52.1374 C.ar    1  ZINC000171059239   -0.0500
     26 H26       -11.7516   -0.8500   52.5278 H       1  ZINC000171059239    0.4100
     27 H27       -11.5989    0.8231   52.5099 H       1  ZINC000171059239    0.4000
     28 H28       -10.6637    2.3974   52.3586 H       1  ZINC000171059239    0.1300
     29 H29        -9.2430    4.3998   52.2072 H       1  ZINC000171059239    0.1300
     30 H30        -6.8022    4.1697   52.0077 H       1  ZINC000171059239    0.1300
     31 H31        -4.8630    2.7600   52.3926 H       1  ZINC000171059239    0.0800
     32 H32        -5.0171    0.9869   52.4200 H       1  ZINC000171059239    0.0800
     33 H33        -5.4360    0.9852   49.9761 H       1  ZINC000171059239    0.0700
     34 H34        -5.2822    2.7584   49.9486 H       1  ZINC000171059239    0.0700
     35 H35        -2.9903    1.3060   51.0405 H       1  ZINC000171059239    0.4000
     36 H36        -1.0246    1.6378   49.8258 H       1  ZINC000171059239    0.4100
     37 H37        -1.5599   -0.0823   47.7845 H       1  ZINC000171059239    0.1200
     38 H38        -1.1242   -1.5299   45.8739 H       1  ZINC000171059239    0.1200
     39 H39         0.0242   -0.6699   43.8785 H       1  ZINC000171059239    0.1200
     40 H40         0.7538    1.6511   43.7611 H       1  ZINC000171059239    0.1300
     41 H41         0.9269    3.8815   44.8207 H       1  ZINC000171059239    0.1300
     42 H42         0.4959    5.3383   46.7212 H       1  ZINC000171059239    0.1300
     43 H43        -0.6544    4.4963   48.7220 H       1  ZINC000171059239    0.1400
     44 H44        -7.1688   -0.0764   52.1160 H       1  ZINC000171059239    0.1400
@<TRIPOS>BOND
     1     1     2   am
     2     1    26    1
     3     1    27    1
     4     2     3    2
     5     2     4    1
     6     4    25   ar
     7     4     5   ar
     8     5     6   ar
     9     5    28    1
    10     6     7   ar
    11     6    29    1
    12     7     8   ar
    13     7    30    1
    14     8     9    1
    15     8    25   ar
    16     9    10    1
    17     9    31    1
    18     9    32    1
    19    10    11    1
    20    10    33    1
    21    10    34    1
    22    11    12   am
    23    11    35    1
    24    12    13    2
    25    12    14   am
    26    14    15    1
    27    14    36    1
    28    15    24   ar
    29    15    16   ar
    30    16    21   ar
    31    16    17   ar
    32    17    18   ar
    33    17    37    1
    34    18    19   ar
    35    18    38    1
    36    19    20   ar
    37    19    39    1
    38    20    21   ar
    39    20    40    1
    40    21    22   ar
    41    22    23   ar
    42    22    41    1
    43    23    24   ar
    44    23    42    1
    45    24    43    1
    46    25    44    1
@<TRIPOS>SUBSTRUCTURE
     1 ZINC000171059239        1 TEMP              0 ****  ****    0 ROOT


##########                                Name:    ZINC001169875900
##########                DOCK_Rotatable_Bonds:                   9
##########                         Heavy_Atoms:                  24
##########                    Molecular_Weight:             329.399
##########                DOCK_Rotatable_Bonds:                   9
##########                       Formal_Charge:          -0.0500002
##########                     HBond_Acceptors:                   6
##########                        HBond_Donors:                   1
##########                         Heavy_Atoms:                  24
##########                          Grid_Score:          -31.511665
##########                     Grid_vdw_energy:          -31.548197
##########                      Grid_es_energy:            0.036531
##########           Internal_energy_repulsive:            8.544872

@<TRIPOS>MOLECULE
ZINC001169875900
 47 48 1 0 0
SMALL
USER_CHARGES


@<TRIPOS>ATOM
      1 C1          2.8845    1.5898   44.4569 C.3     1  ZINC001169875900   -0.1500
      2 C2          1.5574    0.8680   44.2148 C.3     1  ZINC001169875900   -0.1300
      3 C3          0.4672    1.5004   45.0822 C.3     1  ZINC001169875900    0.0700
      4 O4          0.8565    1.4398   46.4557 O.3     1  ZINC001169875900   -0.3100
      5 C5         -0.1392    1.4346   47.3789 C.ar    1  ZINC001169875900    0.2700
      6 N6         -0.9359    2.4840   47.4862 N.ar    1  ZINC001169875900   -0.5000
      7 C7         -1.9126    2.5260   48.3727 C.ar    1  ZINC001169875900    0.0600
      8 C8         -2.1416    1.4572   49.2259 C.ar    1  ZINC001169875900    0.1400
      9 N9         -3.1791    1.5087   50.1643 N.pl3   1  ZINC001169875900   -0.7400
     10 C10        -4.5522    1.7678   49.7244 C.3     1  ZINC001169875900    0.1800
     11 C11        -5.4461    1.9153   50.9288 C.ar    1  ZINC001169875900    0.1000
     12 C12        -5.2201    2.9478   51.8252 C.ar    1  ZINC001169875900   -0.1200
     13 C13        -6.0447    3.0798   52.9317 C.ar    1  ZINC001169875900   -0.0800
     14 C14        -7.0733    2.1667   53.1022 C.ar    1  ZINC001169875900   -0.1000
     15 C15        -7.2419    1.1534   52.1607 C.ar    1  ZINC001169875900    0.0900
     16 C16        -8.3360    0.1700   52.3284 C.2     1  ZINC001169875900    0.5200
     17 O17        -8.2631   -0.9168   51.7917 O.2     1  ZINC001169875900   -0.5000
     18 O18        -9.4120    0.4808   53.0763 O.3     1  ZINC001169875900   -0.3300
     19 C19       -10.4293   -0.5444   53.2258 C.3     1  ZINC001169875900    0.0600
     20 C20       -11.2379   -0.6531   51.9315 C.3     1  ZINC001169875900   -0.1500
     21 N21        -6.4329    1.0657   51.1118 N.ar    1  ZINC001169875900   -0.4200
     22 C22        -1.3250    0.3311   49.1376 C.ar    1  ZINC001169875900   -0.1200
     23 C23        -0.3119    0.3246   48.1956 C.ar    1  ZINC001169875900   -0.1000
     24 C24         0.5973   -0.8698   48.0615 C.3     1  ZINC001169875900   -0.1000
     25 H25         3.1597    1.5015   45.5079 H       1  ZINC001169875900    0.0600
     26 H26         3.6612    1.1392   43.8389 H       1  ZINC001169875900    0.0600
     27 H27         2.7783    2.6428   44.1964 H       1  ZINC001169875900    0.0600
     28 H28         1.6638   -0.1851   44.4753 H       1  ZINC001169875900    0.0700
     29 H29         1.2823    0.9562   43.1637 H       1  ZINC001169875900    0.0700
     30 H30        -0.4674    0.9563   44.9451 H       1  ZINC001169875900    0.0600
     31 H31         0.3281    2.5411   44.7895 H       1  ZINC001169875900    0.0600
     32 H32        -2.5402    3.4028   48.4346 H       1  ZINC001169875900    0.1500
     33 H33        -2.9888    1.3729   51.1056 H       1  ZINC001169875900    0.4000
     34 H34        -4.5787    2.6861   49.1377 H       1  ZINC001169875900    0.0800
     35 H35        -4.9011    0.9357   49.1128 H       1  ZINC001169875900    0.0800
     36 H36        -4.4093    3.6426   51.6634 H       1  ZINC001169875900    0.1500
     37 H37        -5.8892    3.8762   53.6444 H       1  ZINC001169875900    0.1500
     38 H38        -7.7346    2.2394   53.9530 H       1  ZINC001169875900    0.1500
     39 H39        -9.9524   -1.5013   53.4378 H       1  ZINC001169875900    0.0700
     40 H40       -11.0938   -0.2796   54.0482 H       1  ZINC001169875900    0.0700
     41 H41       -11.7148    0.3038   51.7195 H       1  ZINC001169875900    0.0700
     42 H42       -10.5733   -0.9180   51.1091 H       1  ZINC001169875900    0.0700
     43 H43       -12.0015   -1.4228   52.0438 H       1  ZINC001169875900    0.0800
     44 H44        -1.4795   -0.5163   49.7891 H       1  ZINC001169875900    0.1400
     45 H45         0.1740   -1.5696   47.3409 H       1  ZINC001169875900    0.0700
     46 H46         0.6970   -1.3610   49.0295 H       1  ZINC001169875900    0.0700
     47 H47         1.5785   -0.5428   47.7172 H       1  ZINC001169875900    0.0700
@<TRIPOS>BOND
     1     1     2    1
     2     1    25    1
     3     1    26    1
     4     1    27    1
     5     2     3    1
     6     2    28    1
     7     2    29    1
     8     3     4    1
     9     3    30    1
    10     3    31    1
    11     4     5    1
    12     5    23   ar
    13     5     6   ar
    14     6     7   ar
    15     7     8   ar
    16     7    32    1
    17     8     9    1
    18     8    22   ar
    19     9    10    1
    20     9    33    1
    21    10    11    1
    22    10    34    1
    23    10    35    1
    24    11    21   ar
    25    11    12   ar
    26    12    13   ar
    27    12    36    1
    28    13    14   ar
    29    13    37    1
    30    14    15   ar
    31    14    38    1
    32    15    16    1
    33    15    21   ar
    34    16    17    2
    35    16    18    1
    36    18    19    1
    37    19    20    1
    38    19    39    1
    39    19    40    1
    40    20    41    1
    41    20    42    1
    42    20    43    1
    43    22    23   ar
    44    22    44    1
    45    23    24    1
    46    24    45    1
    47    24    46    1
    48    24    47    1
@<TRIPOS>SUBSTRUCTURE
     1 ZINC001169875900        1 TEMP              0 ****  ****    0 ROOT


##########                                Name:    ZINC000479580180
##########                DOCK_Rotatable_Bonds:                   5
##########                         Heavy_Atoms:                  30
##########                    Molecular_Weight:             404.444
##########                DOCK_Rotatable_Bonds:                   5
##########                       Formal_Charge:           0.0299995
##########                     HBond_Acceptors:                   7
##########                        HBond_Donors:                   1
##########                         Heavy_Atoms:                  30
##########                          Grid_Score:          -31.480623
##########                     Grid_vdw_energy:          -31.153229
##########                      Grid_es_energy:           -0.327395
##########           Internal_energy_repulsive:           12.222475

@<TRIPOS>MOLECULE
ZINC000479580180
 51 55 1 0 0
SMALL
USER_CHARGES


@<TRIPOS>ATOM
      1 O1         -1.7919    2.9666   51.4497 O.2     1  ZINC000479580180   -0.5200
      2 C2         -2.5971    2.8330   50.5527 C.2     1  ZINC000479580180    0.5200
      3 C3         -2.1285    2.4680   49.1677 C.3     1  ZINC000479580180   -0.0700
      4 C4         -0.6267    2.3424   49.1623 C.2     1  ZINC000479580180   -0.1600
      5 C5          0.2614    3.2963   49.4724 C.2     1  ZINC000479580180    0.0300
      6 O6          1.5135    2.8198   49.3547 O.3     1  ZINC000479580180   -0.1900
      7 C7          1.5021    1.5304   48.9617 C.ar    1  ZINC000479580180    0.0800
      8 C8          2.5017    0.6020   48.7007 C.ar    1  ZINC000479580180   -0.1400
      9 C9          2.1639   -0.6768   48.3039 C.ar    1  ZINC000479580180    0.1300
     10 F10         3.1380   -1.5782   48.0511 F       1  ZINC000479580180   -0.1300
     11 C11         0.8322   -1.0454   48.1623 C.ar    1  ZINC000479580180   -0.1600
     12 C12        -0.1655   -0.1447   48.4143 C.ar    1  ZINC000479580180   -0.0400
     13 C13         0.1569    1.1483   48.8225 C.ar    1  ZINC000479580180   -0.1200
     14 N14        -3.9116    3.0054   50.7957 N.am    1  ZINC000479580180   -0.6200
     15 C15        -4.8999    2.8353   49.7220 C.3     1  ZINC000479580180    0.1100
     16 C16        -5.9627    1.8337   50.1844 C.3     1  ZINC000479580180   -0.1300
     17 C17        -6.5550    2.3025   51.5155 C.3     1  ZINC000479580180   -0.0100
     18 C18        -7.6251    1.3373   51.9565 C.2     1  ZINC000479580180    0.3000
     19 N19        -8.6709    1.6331   52.6820 N.2     1  ZINC000479580180   -0.5300
     20 C20        -9.4090    0.5333   52.8832 C.2     1  ZINC000479580180    0.2700
     21 C21       -10.6725    0.4694   53.6590 C.ar    1  ZINC000479580180   -0.0200
     22 C22       -11.3163   -0.7519   53.8472 C.ar    1  ZINC000479580180   -0.0800
     23 C23       -12.4909   -0.8056   54.5699 C.ar    1  ZINC000479580180   -0.1300
     24 C24       -13.0293    0.3499   55.1065 C.ar    1  ZINC000479580180   -0.1000
     25 C25       -12.3943    1.5650   54.9227 C.ar    1  ZINC000479580180   -0.1200
     26 C26       -11.2162    1.6295   54.2066 C.ar    1  ZINC000479580180   -0.0800
     27 N27        -8.8286   -0.4802   52.2789 N.2     1  ZINC000479580180   -0.3000
     28 N28        -7.6702    0.0246   51.6661 N.pl3   1  ZINC000479580180   -0.4800
     29 C29        -5.4518    2.3596   52.5747 C.3     1  ZINC000479580180   -0.1400
     30 C30        -4.3838    3.3613   52.1407 C.3     1  ZINC000479580180    0.1200
     31 H31        -2.5736    1.5179   48.8721 H       1  ZINC000479580180    0.1100
     32 H32        -2.4306    3.2449   48.4653 H       1  ZINC000479580180    0.1100
     33 H33         0.0085    4.3023   49.7732 H       1  ZINC000479580180    0.2100
     34 H34         3.5399    0.8795   48.8078 H       1  ZINC000479580180    0.1500
     35 H35         0.5831   -2.0492   47.8511 H       1  ZINC000479580180    0.1400
     36 H36        -1.1995   -0.4357   48.3023 H       1  ZINC000479580180    0.1300
     37 H37        -5.3713    3.7937   49.5040 H       1  ZINC000479580180    0.0800
     38 H38        -4.4059    2.4569   48.8271 H       1  ZINC000479580180    0.0900
     39 H39        -6.7532    1.7708   49.4365 H       1  ZINC000479580180    0.0900
     40 H40        -5.5058    0.8527   50.3149 H       1  ZINC000479580180    0.0700
     41 H41        -6.9897    3.2942   51.3903 H       1  ZINC000479580180    0.1200
     42 H42       -10.8972   -1.6546   53.4280 H       1  ZINC000479580180    0.1400
     43 H43       -12.9909   -1.7517   54.7164 H       1  ZINC000479580180    0.1300
     44 H44       -13.9490    0.3035   55.6708 H       1  ZINC000479580180    0.1300
     45 H45       -12.8192    2.4643   55.3435 H       1  ZINC000479580180    0.1300
     46 H46       -10.7210    2.5786   54.0639 H       1  ZINC000479580180    0.1300
     47 H47        -7.0260   -0.4761   51.1415 H       1  ZINC000479580180    0.4400
     48 H48        -5.8787    2.6710   53.5280 H       1  ZINC000479580180    0.0900
     49 H49        -4.9997    1.3737   52.6827 H       1  ZINC000479580180    0.0700
     50 H50        -3.5495    3.3326   52.8418 H       1  ZINC000479580180    0.1000
     51 H51        -4.8106    4.3640   52.1184 H       1  ZINC000479580180    0.0800
@<TRIPOS>BOND
     1     1     2    2
     2     2     3    1
     3     2    14   am
     4     3     4    1
     5     3    31    1
     6     3    32    1
     7     4    13    1
     8     4     5    2
     9     5     6    1
    10     5    33    1
    11     6     7    1
    12     7    13   ar
    13     7     8   ar
    14     8     9   ar
    15     8    34    1
    16     9    10    1
    17     9    11   ar
    18    11    12   ar
    19    11    35    1
    20    12    13   ar
    21    12    36    1
    22    14    30    1
    23    14    15    1
    24    15    16    1
    25    15    37    1
    26    15    38    1
    27    16    17    1
    28    16    39    1
    29    16    40    1
    30    17    18    1
    31    17    29    1
    32    17    41    1
    33    18    28    1
    34    18    19    2
    35    19    20    1
    36    20    21    1
    37    20    27    2
    38    21    26   ar
    39    21    22   ar
    40    22    23   ar
    41    22    42    1
    42    23    24   ar
    43    23    43    1
    44    24    25   ar
    45    24    44    1
    46    25    26   ar
    47    25    45    1
    48    26    46    1
    49    27    28    1
    50    28    47    1
    51    29    30    1
    52    29    48    1
    53    29    49    1
    54    30    50    1
    55    30    51    1
@<TRIPOS>SUBSTRUCTURE
     1 ZINC000479580180        1 TEMP              0 ****  ****    0 ROOT


##########                                Name:    ZINC000948289723
##########                DOCK_Rotatable_Bonds:                   6
##########                         Heavy_Atoms:                  24
##########                    Molecular_Weight:             331.415
##########                DOCK_Rotatable_Bonds:                   6
##########                       Formal_Charge:           0.0599999
##########                     HBond_Acceptors:                   6
##########                        HBond_Donors:                   1
##########                         Heavy_Atoms:                  24
##########                          Grid_Score:          -31.452957
##########                     Grid_vdw_energy:          -30.946686
##########                      Grid_es_energy:           -0.506272
##########           Internal_energy_repulsive:            7.281086

@<TRIPOS>MOLECULE
ZINC000948289723
 49 52 1 0 0
SMALL
USER_CHARGES


@<TRIPOS>ATOM
      1 C1        -12.8585   -0.0735   52.6599 C.3     1  ZINC000948289723   -0.1400
      2 C2        -11.6075    0.5532   53.2793 C.3     1  ZINC000948289723   -0.1100
      3 C3        -10.4800   -0.4578   53.5466 C.3     1  ZINC000948289723   -0.1100
      4 C4         -9.5014    0.6243   53.0603 C.3     1  ZINC000948289723   -0.1400
      5 C5         -8.3827    0.0864   52.2058 C.2     1  ZINC000948289723    0.5400
      6 O6         -8.2977   -1.1054   51.9978 O.2     1  ZINC000948289723   -0.5300
      7 N7         -7.4766    0.9298   51.6728 N.am    1  ZINC000948289723   -0.6200
      8 C8         -7.4610    2.3899   51.8433 C.3     1  ZINC000948289723    0.1100
      9 C9         -6.2323    2.9273   51.0798 C.3     1  ZINC000948289723   -0.1100
     10 H10        -6.5156    3.2674   50.0837 H       1  ZINC000948289723    0.1000
     11 C11        -5.5586    4.0556   51.8635 C.3     1  ZINC000948289723   -0.1400
     12 C12        -5.3064    1.6852   50.9931 C.3     1  ZINC000948289723    0.1400
     13 H13        -4.7325    1.5609   51.9113 H       1  ZINC000948289723    0.1200
     14 N14        -4.4194    1.7716   49.8303 N.am    1  ZINC000948289723   -0.7100
     15 C15        -3.1509    2.2011   49.9809 C.2     1  ZINC000948289723    0.6100
     16 O16        -2.7421    2.5154   51.0820 O.2     1  ZINC000948289723   -0.5000
     17 C17        -2.2582    2.2897   48.8099 C.2     1  ZINC000948289723   -0.0900
     18 C18        -0.9983    2.8221   48.7747 C.2     1  ZINC000948289723   -0.1400
     19 C19        -0.5984    2.6554   47.4301 C.2     1  ZINC000948289723    0.0500
     20 C20         0.7184    3.0682   46.8243 C.3     1  ZINC000948289723   -0.0900
     21 C21         0.7824    3.2083   45.3020 C.3     1  ZINC000948289723   -0.1600
     22 C22         0.7982    4.4566   46.1865 C.3     1  ZINC000948289723   -0.1600
     23 N23        -1.5889    2.0756   46.8170 N.2     1  ZINC000948289723   -0.3300
     24 O24        -2.5164    1.8579   47.5611 O.3     1  ZINC000948289723    0.1200
     25 C25        -6.3334    0.5403   50.8273 C.3     1  ZINC000948289723    0.0900
     26 C26       -10.6710    1.2062   52.2491 C.3     1  ZINC000948289723   -0.1200
     27 H27       -12.5642   -0.8476   51.9512 H       1  ZINC000948289723    0.0600
     28 H28       -13.4712   -0.5144   53.4460 H       1  ZINC000948289723    0.0600
     29 H29       -13.4311    0.6953   52.1411 H       1  ZINC000948289723    0.0600
     30 H30       -11.8329    1.1936   54.1321 H       1  ZINC000948289723    0.0900
     31 H31       -10.3620   -0.7117   54.6000 H       1  ZINC000948289723    0.0700
     32 H32       -10.5176   -1.3348   52.9004 H       1  ZINC000948289723    0.1000
     33 H33        -9.1487    1.2826   53.8542 H       1  ZINC000948289723    0.1100
     34 H34        -8.3724    2.8214   51.4295 H       1  ZINC000948289723    0.0800
     35 H35        -7.3778    2.6387   52.9013 H       1  ZINC000948289723    0.0800
     36 H36        -5.2567    3.6870   52.8438 H       1  ZINC000948289723    0.0600
     37 H37        -4.6801    4.4020   51.3191 H       1  ZINC000948289723    0.0600
     38 H38        -6.2593    4.8816   51.9859 H       1  ZINC000948289723    0.0700
     39 H39        -4.7452    1.5196   48.9521 H       1  ZINC000948289723    0.4100
     40 H40        -0.4400    3.2663   49.5854 H       1  ZINC000948289723    0.1800
     41 H41         1.6074    2.6964   47.3337 H       1  ZINC000948289723    0.1300
     42 H42         1.7138    2.9286   44.8096 H       1  ZINC000948289723    0.1100
     43 H43        -0.1276    3.0019   44.7388 H       1  ZINC000948289723    0.1000
     44 H44        -0.1016    5.0715   46.2052 H       1  ZINC000948289723    0.1000
     45 H45         1.7399    4.9982   46.2760 H       1  ZINC000948289723    0.1100
     46 H46        -5.9081   -0.4032   51.1695 H       1  ZINC000948289723    0.0900
     47 H47        -6.6478    0.4604   49.7868 H       1  ZINC000948289723    0.0800
     48 H48       -10.7609    0.7841   51.2481 H       1  ZINC000948289723    0.0900
     49 H49       -10.7072    2.2955   52.2549 H       1  ZINC000948289723    0.0800
@<TRIPOS>BOND
     1     1     2    1
     2     1    27    1
     3     1    28    1
     4     1    29    1
     5     2    26    1
     6     2     3    1
     7     2    30    1
     8     3     4    1
     9     3    31    1
    10     3    32    1
    11     4     5    1
    12     4    26    1
    13     4    33    1
    14     5     6    2
    15     5     7   am
    16     7    25    1
    17     7     8    1
    18     8     9    1
    19     8    34    1
    20     8    35    1
    21     9    10    1
    22     9    11    1
    23     9    12    1
    24    11    36    1
    25    11    37    1
    26    11    38    1
    27    12    13    1
    28    12    14    1
    29    12    25    1
    30    14    15   am
    31    14    39    1
    32    15    16    2
    33    15    17    1
    34    17    24    1
    35    17    18    2
    36    18    19    1
    37    18    40    1
    38    19    20    1
    39    19    23    2
    40    20    22    1
    41    20    21    1
    42    20    41    1
    43    21    22    1
    44    21    42    1
    45    21    43    1
    46    22    44    1
    47    22    45    1
    48    23    24    1
    49    25    46    1
    50    25    47    1
    51    26    48    1
    52    26    49    1
@<TRIPOS>SUBSTRUCTURE
     1 ZINC000948289723        1 TEMP              0 ****  ****    0 ROOT


##########                                Name:    ZINC000369046711
##########                DOCK_Rotatable_Bonds:                   8
##########                         Heavy_Atoms:                  26
##########                    Molecular_Weight:             367.467
##########                DOCK_Rotatable_Bonds:                   8
##########                       Formal_Charge:        -7.63685e-07
##########                     HBond_Acceptors:                   8
##########                        HBond_Donors:                   1
##########                         Heavy_Atoms:                  26
##########                          Grid_Score:          -31.447643
##########                     Grid_vdw_energy:          -31.465883
##########                      Grid_es_energy:            0.018240
##########           Internal_energy_repulsive:           61.092178

@<TRIPOS>MOLECULE
ZINC000369046711
 56 58 1 0 0
SMALL
USER_CHARGES


@<TRIPOS>ATOM
      1 C1          4.8116   -0.6903   47.3527 C.3     1  ZINC000369046711   -0.1800
      2 C2          3.3672   -0.1857   47.3589 C.3     1  ZINC000369046711    0.1400
      3 C3          3.2411    0.9875   48.3329 C.3     1  ZINC000369046711   -0.1800
      4 C4          2.9822    0.2758   45.9520 C.3     1  ZINC000369046711   -0.1400
      5 O5          2.4816   -1.2582   47.7759 O.3     1  ZINC000369046711   -0.3700
      6 C6          1.1663   -0.9767   47.8348 C.2     1  ZINC000369046711    0.6500
      7 O7          0.3742   -1.8396   48.1585 O.2     1  ZINC000369046711   -0.5700
      8 N8          0.7281    0.2619   47.5346 N.am    1  ZINC000369046711   -0.7100
      9 C9         -0.7030    0.5686   47.6004 C.3     1  ZINC000369046711    0.1800
     10 H10        -1.2703   -0.3323   47.3669 H       1  ZINC000369046711    0.0900
     11 C11        -1.0298    1.6453   46.5663 C.3     1  ZINC000369046711   -0.1300
     12 C12        -0.2326    2.9056   46.9224 C.3     1  ZINC000369046711   -0.1200
     13 C13        -0.7186    3.4171   48.2755 C.3     1  ZINC000369046711   -0.1200
     14 C14        -0.4593    2.3877   49.3774 C.3     1  ZINC000369046711   -0.1000
     15 H15         0.5953    2.3339   49.6473 H       1  ZINC000369046711    0.0900
     16 C16        -1.3562    2.7943   50.5786 C.3     1  ZINC000369046711    0.0400
     17 N17        -2.6341    2.0720   50.4248 N.3     1  ZINC000369046711   -0.5200
     18 C18        -3.7623    3.0093   50.3437 C.3     1  ZINC000369046711    0.1200
     19 C19        -5.0261    2.3131   50.7785 C.2     1  ZINC000369046711    0.2900
     20 N20        -5.1029    1.3177   51.6240 N.2     1  ZINC000369046711   -0.5400
     21 C21        -6.3747    0.9503   51.7752 C.2     1  ZINC000369046711    0.2000
     22 N22        -7.1281    1.7102   51.0247 N.2     1  ZINC000369046711   -0.3200
     23 N23        -6.2718    2.6103   50.3698 N.pl3   1  ZINC000369046711   -0.3700
     24 C24        -6.6582    3.6584   49.4220 C.3     1  ZINC000369046711    0.1000
     25 C25        -6.9202    4.9608   50.1807 C.3     1  ZINC000369046711    0.0500
     26 F26        -7.9527    4.7632   51.1039 F       1  ZINC000369046711   -0.2000
     27 C27        -2.5558    1.2284   49.2084 C.3     1  ZINC000369046711    0.0500
     28 C28        -1.0457    1.0169   48.9982 C.3     1  ZINC000369046711   -0.1000
     29 H29        -0.6871    0.2674   49.7037 H       1  ZINC000369046711    0.0900
     30 H30         5.0859   -1.0191   48.3550 H       1  ZINC000369046711    0.0900
     31 H31         4.9014   -1.5261   46.6589 H       1  ZINC000369046711    0.0600
     32 H32         5.4763    0.1148   47.0397 H       1  ZINC000369046711    0.0700
     33 H33         3.9058    1.7926   48.0199 H       1  ZINC000369046711    0.0700
     34 H34         2.2120    1.3470   48.3373 H       1  ZINC000369046711    0.0600
     35 H35         3.5154    0.6587   49.3352 H       1  ZINC000369046711    0.0900
     36 H36         3.0720   -0.5600   45.2581 H       1  ZINC000369046711    0.0700
     37 H37         1.9531    0.6353   45.9565 H       1  ZINC000369046711    0.0700
     38 H38         3.6469    1.0809   45.6391 H       1  ZINC000369046711    0.0800
     39 H39         1.3602    0.9503   47.2750 H       1  ZINC000369046711    0.4000
     40 H40        -0.7465    1.2992   45.5723 H       1  ZINC000369046711    0.0700
     41 H41        -2.0970    1.8660   46.5894 H       1  ZINC000369046711    0.0800
     42 H42         0.8287    2.6642   46.9811 H       1  ZINC000369046711    0.0600
     43 H43        -0.3943    3.6694   46.1618 H       1  ZINC000369046711    0.0700
     44 H44        -0.1938    4.3411   48.5183 H       1  ZINC000369046711    0.0700
     45 H45        -1.7883    3.6185   48.2186 H       1  ZINC000369046711    0.0600
     46 H46        -0.8770    2.5078   51.5148 H       1  ZINC000369046711    0.0800
     47 H47        -1.5325    3.8700   50.5642 H       1  ZINC000369046711    0.0800
     48 H48        -3.5740    3.8617   50.9965 H       1  ZINC000369046711    0.0800
     49 H49        -3.8734    3.3560   49.3164 H       1  ZINC000369046711    0.1000
     50 H50        -6.7261    0.1533   52.4139 H       1  ZINC000369046711    0.2200
     51 H51        -5.8537    3.8124   48.7027 H       1  ZINC000369046711    0.1200
     52 H52        -7.5634    3.3563   48.8954 H       1  ZINC000369046711    0.1100
     53 H53        -6.0149    5.2630   50.7073 H       1  ZINC000369046711    0.0900
     54 H54        -7.2077    5.7406   49.4755 H       1  ZINC000369046711    0.0800
     55 H55        -3.0572    0.2745   49.3721 H       1  ZINC000369046711    0.0900
     56 H56        -2.9905    1.7480   48.3545 H       1  ZINC000369046711    0.0600
@<TRIPOS>BOND
     1     1     2    1
     2     1    30    1
     3     1    31    1
     4     1    32    1
     5     2     3    1
     6     2     4    1
     7     2     5    1
     8     3    33    1
     9     3    34    1
    10     3    35    1
    11     4    36    1
    12     4    37    1
    13     4    38    1
    14     5     6    1
    15     6     7    2
    16     6     8   am
    17     8     9    1
    18     8    39    1
    19     9    10    1
    20     9    28    1
    21     9    11    1
    22    11    12    1
    23    11    40    1
    24    11    41    1
    25    12    13    1
    26    12    42    1
    27    12    43    1
    28    13    14    1
    29    13    44    1
    30    13    45    1
    31    14    15    1
    32    14    28    1
    33    14    16    1
    34    16    17    1
    35    16    46    1
    36    16    47    1
    37    17    18    1
    38    17    27    1
    39    18    19    1
    40    18    48    1
    41    18    49    1
    42    19    23    1
    43    19    20    2
    44    20    21    1
    45    21    22    2
    46    21    50    1
    47    22    23    1
    48    23    24    1
    49    24    25    1
    50    24    51    1
    51    24    52    1
    52    25    26    1
    53    25    53    1
    54    25    54    1
    55    27    28    1
    56    27    55    1
    57    27    56    1
    58    28    29    1
@<TRIPOS>SUBSTRUCTURE
     1 ZINC000369046711        1 TEMP              0 ****  ****    0 ROOT


##########                                Name:    ZINC000265724350
##########                DOCK_Rotatable_Bonds:                   8
##########                         Heavy_Atoms:                  23
##########                    Molecular_Weight:              345.42
##########                DOCK_Rotatable_Bonds:                   8
##########                       Formal_Charge:          -0.0300002
##########                     HBond_Acceptors:                   9
##########                        HBond_Donors:                   2
##########                         Heavy_Atoms:                  23
##########                          Grid_Score:          -31.404747
##########                     Grid_vdw_energy:          -31.522081
##########                      Grid_es_energy:            0.117333
##########           Internal_energy_repulsive:            5.033484

@<TRIPOS>MOLECULE
ZINC000265724350
 46 47 1 0 0
SMALL
USER_CHARGES


@<TRIPOS>ATOM
      1 C1        -13.5089    0.3054   50.2098 C.3     1  ZINC000265724350    0.0800
      2 N2        -12.3246    0.7473   50.9504 N.am    1  ZINC000265724350   -1.1100
      3 S3        -11.4477   -0.3428   51.8363 S.o2    1  ZINC000265724350    2.7200
      4 O4        -12.2900   -0.7657   52.8997 O.2     1  ZINC000265724350   -0.9300
      5 O5        -10.8638   -1.2412   50.9030 O.2     1  ZINC000265724350   -0.9300
      6 C6        -10.1150    0.5398   52.5779 C.2     1  ZINC000265724350   -0.5600
      7 C7        -10.1438    1.1354   53.7905 C.2     1  ZINC000265724350   -0.0900
      8 C8         -8.8839    1.7199   53.9937 C.2     1  ZINC000265724350   -0.1400
      9 C9         -8.1410    1.4479   52.8807 C.2     1  ZINC000265724350   -0.0200
     10 C10        -6.7538    1.8632   52.6479 C.2     1  ZINC000265724350    0.6000
     11 O11        -6.1610    2.5065   53.4940 O.2     1  ZINC000265724350   -0.5000
     12 N12        -6.1354    1.5323   51.4970 N.am    1  ZINC000265724350   -0.7100
     13 C13        -4.7492    1.9456   51.2653 C.3     1  ZINC000265724350    0.1200
     14 C14        -4.5071    2.0983   49.7623 C.3     1  ZINC000265724350   -0.1100
     15 H15        -4.6876    1.1446   49.2664 H       1  ZINC000265724350    0.0800
     16 C16        -5.4584    3.1550   49.1973 C.3     1  ZINC000265724350   -0.1400
     17 C17        -3.0602    2.5331   49.5204 C.3     1  ZINC000265724350    0.0600
     18 N18        -2.3789    1.5286   48.6930 N.3     1  ZINC000265724350   -0.5300
     19 C19        -1.5622    0.6296   49.5213 C.3     1  ZINC000265724350    0.0100
     20 C20        -0.9195   -0.4350   48.6284 C.3     1  ZINC000265724350    0.0600
     21 O21        -0.1514    0.2069   47.6070 O.3     1  ZINC000265724350   -0.3900
     22 C22        -0.9156    1.0895   46.7809 C.3     1  ZINC000265724350    0.0600
     23 C23        -1.5583    2.1696   47.6550 C.3     1  ZINC000265724350    0.0200
     24 O24        -8.9048    0.7257   52.0352 O.3     1  ZINC000265724350   -0.1100
     25 H25       -13.9514    1.1559   49.6912 H       1  ZINC000265724350    0.0900
     26 H26       -13.2204   -0.4535   49.4825 H       1  ZINC000265724350    0.0600
     27 H27       -14.2360   -0.1149   50.9046 H       1  ZINC000265724350    0.0700
     28 H28       -12.0542    1.6784   50.9218 H       1  ZINC000265724350    0.4200
     29 H29       -10.9791    1.1575   54.4747 H       1  ZINC000265724350    0.1800
     30 H30        -8.5641    2.2769   54.8619 H       1  ZINC000265724350    0.1700
     31 H31        -6.6082    1.0206   50.8222 H       1  ZINC000265724350    0.4100
     32 H32        -4.5663    2.8987   51.7614 H       1  ZINC000265724350    0.0800
     33 H33        -4.0730    1.1912   51.6674 H       1  ZINC000265724350    0.0700
     34 H34        -6.4892    2.8453   49.3696 H       1  ZINC000265724350    0.0500
     35 H35        -5.2778    4.1088   49.6931 H       1  ZINC000265724350    0.0600
     36 H36        -5.2859    3.2639   48.1266 H       1  ZINC000265724350    0.0700
     37 H37        -3.0507    3.4942   49.0064 H       1  ZINC000265724350    0.0800
     38 H38        -2.5445    2.6270   50.4761 H       1  ZINC000265724350    0.0400
     39 H39        -0.7827    1.2038   50.0219 H       1  ZINC000265724350    0.0400
     40 H40        -2.1945    0.1465   50.2663 H       1  ZINC000265724350    0.0900
     41 H41        -0.2679   -1.0692   49.2296 H       1  ZINC000265724350    0.1000
     42 H42        -1.6985   -1.0439   48.1695 H       1  ZINC000265724350    0.0600
     43 H43        -0.2611    1.5580   46.0459 H       1  ZINC000265724350    0.1000
     44 H44        -1.6945    0.5250   46.2683 H       1  ZINC000265724350    0.0600
     45 H45        -2.1877    2.8106   47.0378 H       1  ZINC000265724350    0.0900
     46 H46        -0.7786    2.7684   48.1259 H       1  ZINC000265724350    0.0400
@<TRIPOS>BOND
     1     1     2    1
     2     1    25    1
     3     1    26    1
     4     1    27    1
     5     2     3   am
     6     2    28    1
     7     3     4    2
     8     3     5    2
     9     3     6    1
    10     6    24    1
    11     6     7    2
    12     7     8    1
    13     7    29    1
    14     8     9    2
    15     8    30    1
    16     9    10    1
    17     9    24    1
    18    10    11    2
    19    10    12   am
    20    12    13    1
    21    12    31    1
    22    13    14    1
    23    13    32    1
    24    13    33    1
    25    14    15    1
    26    14    16    1
    27    14    17    1
    28    16    34    1
    29    16    35    1
    30    16    36    1
    31    17    18    1
    32    17    37    1
    33    17    38    1
    34    18    23    1
    35    18    19    1
    36    19    20    1
    37    19    39    1
    38    19    40    1
    39    20    21    1
    40    20    41    1
    41    20    42    1
    42    21    22    1
    43    22    23    1
    44    22    43    1
    45    22    44    1
    46    23    45    1
    47    23    46    1
@<TRIPOS>SUBSTRUCTURE
     1 ZINC000265724350        1 TEMP              0 ****  ****    0 ROOT


##########                                Name:    ZINC000632456679
##########                DOCK_Rotatable_Bonds:                   6
##########                         Heavy_Atoms:                  24
##########                    Molecular_Weight:              374.82
##########                DOCK_Rotatable_Bonds:                   6
##########                       Formal_Charge:          -0.0299999
##########                     HBond_Acceptors:                   9
##########                        HBond_Donors:                   1
##########                         Heavy_Atoms:                  24
##########                          Grid_Score:          -31.398180
##########                     Grid_vdw_energy:          -30.598492
##########                      Grid_es_energy:           -0.799689
##########           Internal_energy_repulsive:           38.024506

@<TRIPOS>MOLECULE
ZINC000632456679
 40 41 1 0 0
SMALL
USER_CHARGES


@<TRIPOS>ATOM
      1 C1          0.0631   -1.0787   47.8348 C.3     1  ZINC000632456679   -0.1600
      2 C2          0.1451    0.3514   48.3727 C.3     1  ZINC000632456679    0.1900
      3 C3          1.2820    0.4485   49.3919 C.3     1  ZINC000632456679   -0.2000
      4 C4          0.4131    1.3165   47.2162 C.3     1  ZINC000632456679   -0.6300
      5 S5         -1.0966    1.5119   46.2297 S.o2    1  ZINC000632456679    2.4100
      6 C6         -0.5480    2.6479   44.9261 C.3     1  ZINC000632456679   -0.6600
      7 O7         -1.4144    0.2608   45.6356 O.2     1  ZINC000632456679   -0.9300
      8 O8         -2.0738    2.1714   47.0230 O.2     1  ZINC000632456679   -0.9300
      9 N9         -1.1216    0.7033   49.0190 N.am    1  ZINC000632456679   -0.7200
     10 C10        -1.2892    1.9307   49.5498 C.2     1  ZINC000632456679    0.6200
     11 O11        -0.3885    2.7454   49.4936 O.2     1  ZINC000632456679   -0.5000
     12 C12        -2.5654    2.2857   50.1991 C.2     1  ZINC000632456679   -0.0900
     13 C13        -3.6923    1.5162   50.2655 C.2     1  ZINC000632456679   -0.1300
     14 C14        -4.6115    2.3229   50.9913 C.2     1  ZINC000632456679    0.0400
     15 C15        -6.0067    1.9732   51.3566 C.ar    1  ZINC000632456679   -0.0500
     16 C16        -6.4386    0.6508   51.2815 C.ar    1  ZINC000632456679   -0.0600
     17 C17        -7.7371    0.3303   51.6223 C.ar    1  ZINC000632456679   -0.1100
     18 C18        -8.6113    1.3183   52.0379 C.ar    1  ZINC000632456679   -0.0700
     19 C19        -8.1904    2.6342   52.1153 C.ar    1  ZINC000632456679   -0.0800
     20 Cl20       -9.2940    3.8683   52.6378 Cl      1  ZINC000632456679   -0.0400
     21 C21        -6.8892    2.9666   51.7822 C.ar    1  ZINC000632456679    0.1400
     22 F22        -6.4775    4.2512   51.8578 F       1  ZINC000632456679   -0.1100
     23 N23        -3.9811    3.4354   51.2735 N.2     1  ZINC000632456679   -0.3200
     24 O24        -2.8493    3.4301   50.8493 O.3     1  ZINC000632456679    0.1400
     25 H25        -0.1277   -1.7664   48.6587 H       1  ZINC000632456679    0.0900
     26 H26        -0.7468   -1.1478   47.1087 H       1  ZINC000632456679    0.0600
     27 H27         1.0056   -1.3405   47.3539 H       1  ZINC000632456679    0.0700
     28 H28         2.2245    0.1866   48.9110 H       1  ZINC000632456679    0.0800
     29 H29         1.3405    1.4673   49.7751 H       1  ZINC000632456679    0.0800
     30 H30         1.0911   -0.2392   50.2158 H       1  ZINC000632456679    0.0900
     31 H31         0.7151    2.2853   47.6140 H       1  ZINC000632456679    0.1600
     32 H32         1.2090    0.9179   46.5872 H       1  ZINC000632456679    0.1400
     33 H33         0.2712    2.1932   44.3689 H       1  ZINC000632456679    0.1300
     34 H34        -1.3778    2.8528   44.2497 H       1  ZINC000632456679    0.1300
     35 H35        -0.2076    3.5804   45.3763 H       1  ZINC000632456679    0.1300
     36 H36        -1.8398    0.0528   49.0650 H       1  ZINC000632456679    0.4200
     37 H37        -3.8486    0.5270   49.8610 H       1  ZINC000632456679    0.1900
     38 H38        -5.7583   -0.1225   50.9568 H       1  ZINC000632456679    0.1500
     39 H39        -8.0716   -0.6950   51.5641 H       1  ZINC000632456679    0.1500
     40 H40        -9.6264    1.0618   52.3026 H       1  ZINC000632456679    0.1500
@<TRIPOS>BOND
     1     1     2    1
     2     1    25    1
     3     1    26    1
     4     1    27    1
     5     2     3    1
     6     2     4    1
     7     2     9    1
     8     3    28    1
     9     3    29    1
    10     3    30    1
    11     4     5    1
    12     4    31    1
    13     4    32    1
    14     5     6    1
    15     5     7    2
    16     5     8    2
    17     6    33    1
    18     6    34    1
    19     6    35    1
    20     9    10   am
    21     9    36    1
    22    10    11    2
    23    10    12    1
    24    12    24    1
    25    12    13    2
    26    13    14    1
    27    13    37    1
    28    14    15    1
    29    14    23    2
    30    15    21   ar
    31    15    16   ar
    32    16    17   ar
    33    16    38    1
    34    17    18   ar
    35    17    39    1
    36    18    19   ar
    37    18    40    1
    38    19    20    1
    39    19    21   ar
    40    21    22    1
    41    23    24    1
@<TRIPOS>SUBSTRUCTURE
     1 ZINC000632456679        1 TEMP              0 ****  ****    0 ROOT


##########                                Name:    ZINC000623695407
##########                DOCK_Rotatable_Bonds:                  10
##########                         Heavy_Atoms:                  27
##########                    Molecular_Weight:             368.479
##########                DOCK_Rotatable_Bonds:                  10
##########                       Formal_Charge:           0.0299989
##########                     HBond_Acceptors:                   6
##########                        HBond_Donors:                   2
##########                         Heavy_Atoms:                  27
##########                          Grid_Score:          -31.352900
##########                     Grid_vdw_energy:          -31.469299
##########                      Grid_es_energy:            0.116400
##########           Internal_energy_repulsive:           13.371358

@<TRIPOS>MOLECULE
ZINC000623695407
 55 57 1 0 0
SMALL
USER_CHARGES


@<TRIPOS>ATOM
      1 C1        -16.4056   -2.2316   58.0834 C.3     1  ZINC000623695407    0.0300
      2 O2        -15.5061   -3.2291   58.5712 O.3     1  ZINC000623695407   -0.3200
      3 C3        -14.1928   -2.8889   58.6528 C.ar    1  ZINC000623695407    0.1300
      4 C4        -13.5895   -2.7401   59.8932 C.ar    1  ZINC000623695407   -0.2100
      5 C5        -12.2543   -2.3947   59.9735 C.ar    1  ZINC000623695407   -0.0600
      6 C6        -11.5196   -2.1970   58.8190 C.ar    1  ZINC000623695407   -0.1100
      7 C7        -10.0633   -1.8198   58.9095 C.3     1  ZINC000623695407    0.0600
      8 N8         -9.9060   -0.6947   59.8408 N.3     1  ZINC000623695407   -0.4600
      9 C9         -9.2681   -1.1331   61.0962 C.3     1  ZINC000623695407    0.0000
     10 C10        -8.4398    0.1589   61.0614 C.3     1  ZINC000623695407   -0.1300
     11 C11        -8.6771    0.0663   59.5476 C.3     1  ZINC000623695407    0.0100
     12 H12        -7.9196   -0.5171   59.0242 H       1  ZINC000623695407    0.0900
     13 C13        -8.9407    1.4214   58.8879 C.3     1  ZINC000623695407    0.1600
     14 N14        -8.6470    1.3325   57.4554 N.am    1  ZINC000623695407   -0.7400
     15 C15        -8.3970    2.4522   56.7480 C.2     1  ZINC000623695407    0.7100
     16 O16        -8.4166    3.5361   57.2985 O.2     1  ZINC000623695407   -0.5900
     17 N17        -8.1252    2.3702   55.4305 N.am    1  ZINC000623695407   -0.7400
     18 C18        -7.8552    3.5875   54.6613 C.3     1  ZINC000623695407    0.1700
     19 H19        -8.3072    4.4426   55.1638 H       1  ZINC000623695407    0.0900
     20 C20        -6.3436    3.7988   54.5549 C.3     1  ZINC000623695407   -0.1600
     21 C21        -8.4505    3.4470   53.2588 C.3     1  ZINC000623695407   -0.0900
     22 C22        -7.7471    2.3353   52.5236 C.ar    1  ZINC000623695407   -0.0300
     23 C23        -8.1662    1.0204   52.6563 C.ar    1  ZINC000623695407   -0.1700
     24 C24        -7.4966    0.0274   51.9665 C.ar    1  ZINC000623695407    0.1000
     25 N25        -6.4711    0.3191   51.1907 N.ar    1  ZINC000623695407   -0.4900
     26 C26        -6.0451    1.5580   51.0408 C.ar    1  ZINC000623695407    0.1000
     27 C27        -6.6691    2.6039   51.6941 C.ar    1  ZINC000623695407   -0.1700
     28 C28       -12.1186   -2.3452   57.5817 C.ar    1  ZINC000623695407   -0.0700
     29 C29       -13.4520   -2.6956   57.4959 C.ar    1  ZINC000623695407   -0.1500
     30 H30       -17.4192   -2.6321   58.0689 H       1  ZINC000623695407    0.1000
     31 H31       -16.3691   -1.3591   58.7358 H       1  ZINC000623695407    0.0600
     32 H32       -16.1145   -1.9425   57.0735 H       1  ZINC000623695407    0.0600
     33 H33       -14.1632   -2.8937   60.7952 H       1  ZINC000623695407    0.1300
     34 H34       -11.7841   -2.2787   60.9388 H       1  ZINC000623695407    0.1200
     35 H35        -9.4887   -2.6729   59.2699 H       1  ZINC000623695407    0.0600
     36 H36        -9.7015   -1.5284   57.9234 H       1  ZINC000623695407    0.0700
     37 H37        -9.9576   -1.1843   61.9388 H       1  ZINC000623695407    0.0900
     38 H38        -8.6683   -2.0366   60.9860 H       1  ZINC000623695407    0.0700
     39 H39        -8.9232    1.0119   61.5377 H       1  ZINC000623695407    0.1000
     40 H40        -7.3991    0.0299   61.3588 H       1  ZINC000623695407    0.0800
     41 H41        -9.9861    1.6965   59.0281 H       1  ZINC000623695407    0.0700
     42 H42        -8.3016    2.1777   59.3437 H       1  ZINC000623695407    0.0700
     43 H43        -8.6324    0.4679   57.0160 H       1  ZINC000623695407    0.3900
     44 H44        -8.1083    1.5053   54.9916 H       1  ZINC000623695407    0.3900
     45 H45        -6.1428    4.7045   53.9825 H       1  ZINC000623695407    0.0700
     46 H46        -5.9196    3.8989   55.5540 H       1  ZINC000623695407    0.0700
     47 H47        -5.8917    2.9436   54.0524 H       1  ZINC000623695407    0.0600
     48 H48        -9.5129    3.2160   53.3366 H       1  ZINC000623695407    0.1000
     49 H49        -8.3209    4.3820   52.7138 H       1  ZINC000623695407    0.0800
     50 H50        -9.0049    0.7751   53.2908 H       1  ZINC000623695407    0.1300
     51 H51        -7.8168   -0.9995   52.0645 H       1  ZINC000623695407    0.1500
     52 H52        -5.2015    1.7582   50.3969 H       1  ZINC000623695407    0.1600
     53 H53        -6.3159    3.6166   51.5671 H       1  ZINC000623695407    0.1400
     54 H54       -11.5423   -2.1905   56.6813 H       1  ZINC000623695407    0.1200
     55 H55       -13.9194   -2.8113   56.5293 H       1  ZINC000623695407    0.1300
@<TRIPOS>BOND
     1     1     2    1
     2     1    30    1
     3     1    31    1
     4     1    32    1
     5     2     3    1
     6     3    29   ar
     7     3     4   ar
     8     4     5   ar
     9     4    33    1
    10     5     6   ar
    11     5    34    1
    12     6     7    1
    13     6    28   ar
    14     7     8    1
    15     7    35    1
    16     7    36    1
    17     8    11    1
    18     8     9    1
    19     9    10    1
    20     9    37    1
    21     9    38    1
    22    10    11    1
    23    10    39    1
    24    10    40    1
    25    11    12    1
    26    11    13    1
    27    13    14    1
    28    13    41    1
    29    13    42    1
    30    14    15   am
    31    14    43    1
    32    15    16    2
    33    15    17   am
    34    17    18    1
    35    17    44    1
    36    18    19    1
    37    18    20    1
    38    18    21    1
    39    20    45    1
    40    20    46    1
    41    20    47    1
    42    21    22    1
    43    21    48    1
    44    21    49    1
    45    22    27   ar
    46    22    23   ar
    47    23    24   ar
    48    23    50    1
    49    24    25   ar
    50    24    51    1
    51    25    26   ar
    52    26    27   ar
    53    26    52    1
    54    27    53    1
    55    28    29   ar
    56    28    54    1
    57    29    55    1
@<TRIPOS>SUBSTRUCTURE
     1 ZINC000623695407        1 TEMP              0 ****  ****    0 ROOT


##########                                Name:    ZINC000151820600
##########                DOCK_Rotatable_Bonds:                  10
##########                         Heavy_Atoms:                  25
##########                    Molecular_Weight:             388.915
##########                DOCK_Rotatable_Bonds:                  10
##########                       Formal_Charge:           0.0499998
##########                     HBond_Acceptors:                   8
##########                        HBond_Donors:                   2
##########                         Heavy_Atoms:                  25
##########                          Grid_Score:          -31.349033
##########                     Grid_vdw_energy:          -30.562569
##########                      Grid_es_energy:           -0.786465
##########           Internal_energy_repulsive:           61.016338

@<TRIPOS>MOLECULE
ZINC000151820600
 50 50 1 0 0
SMALL
USER_CHARGES


@<TRIPOS>ATOM
      1 C1         -8.9486    2.6115   54.1224 C.3     1  ZINC000151820600   -0.4900
      2 S2         -7.3748    3.2850   53.5223 S.o     1  ZINC000151820600    1.2500
      3 O3         -7.4883    4.6937   53.3739 O.2     1  ZINC000151820600   -0.8500
      4 C4         -7.1988    2.5170   51.8884 C.3     1  ZINC000151820600   -0.4500
      5 C5         -5.8973    2.9918   51.2393 C.3     1  ZINC000151820600   -0.1100
      6 C6         -5.7485    2.3435   49.8613 C.3     1  ZINC000151820600    0.1200
      7 N7         -4.5016    2.7972   49.2404 N.am    1  ZINC000151820600   -0.7200
      8 C8         -3.3620    2.1036   49.4321 C.2     1  ZINC000151820600    0.5200
      9 O9         -3.3686    1.1045   50.1199 O.2     1  ZINC000151820600   -0.5200
     10 C10        -2.0797    2.5691   48.7919 C.3     1  ZINC000151820600    0.1900
     11 H11        -2.3104    3.2053   47.9373 H       1  ZINC000151820600    0.1300
     12 N12        -1.2942    3.3284   49.7680 N.am    1  ZINC000151820600   -0.6900
     13 C13        -0.4241    4.2683   49.3482 C.2     1  ZINC000151820600    0.6600
     14 O14        -0.2902    4.4848   48.1600 O.2     1  ZINC000151820600   -0.5600
     15 O15         0.2966    4.9671   50.2453 O.3     1  ZINC000151820600   -0.3600
     16 C16         0.0855    4.6547   51.6475 C.3     1  ZINC000151820600    0.1400
     17 C17         0.9849    5.5435   52.5090 C.3     1  ZINC000151820600   -0.1800
     18 C18        -1.3791    4.9065   52.0112 C.3     1  ZINC000151820600   -0.1400
     19 C19         0.4284    3.1852   51.8999 C.3     1  ZINC000151820600   -0.1800
     20 C20        -1.2866    1.3742   48.3291 C.ar    1  ZINC000151820600   -0.1000
     21 C21        -0.5316    0.6531   49.2349 C.ar    1  ZINC000151820600   -0.0900
     22 C22         0.1959   -0.4436   48.8111 C.ar    1  ZINC000151820600   -0.1000
     23 C23         0.1691   -0.8191   47.4814 C.ar    1  ZINC000151820600   -0.1000
     24 C24        -0.5866   -0.0975   46.5741 C.ar    1  ZINC000151820600   -0.0300
     25 Cl25       -0.6212   -0.5689   44.9037 Cl      1  ZINC000151820600   -0.0600
     26 C26        -1.3187    0.9962   46.9998 C.ar    1  ZINC000151820600   -0.0900
     27 H27        -9.7490    2.8938   53.4385 H       1  ZINC000151820600    0.0800
     28 H28        -8.8822    1.5247   54.1752 H       1  ZINC000151820600    0.1100
     29 H29        -9.1604    3.0111   55.1142 H       1  ZINC000151820600    0.1100
     30 H30        -7.1761    1.4327   51.9971 H       1  ZINC000151820600    0.1200
     31 H31        -8.0429    2.8017   51.2603 H       1  ZINC000151820600    0.0900
     32 H32        -5.9201    4.0760   51.1301 H       1  ZINC000151820600    0.0800
     33 H33        -5.0531    2.7076   51.8676 H       1  ZINC000151820600    0.0900
     34 H34        -5.7266    1.2592   49.9704 H       1  ZINC000151820600    0.0800
     35 H35        -6.5921    2.6285   49.2327 H       1  ZINC000151820600    0.0700
     36 H36        -4.4960    3.5968   48.6912 H       1  ZINC000151820600    0.4000
     37 H37        -1.4002    3.1547   50.7164 H       1  ZINC000151820600    0.4200
     38 H38         0.7406    6.5905   52.3291 H       1  ZINC000151820600    0.0600
     39 H39         0.8265    5.3091   53.5616 H       1  ZINC000151820600    0.0700
     40 H40         2.0284    5.3642   52.2499 H       1  ZINC000151820600    0.0900
     41 H41        -2.0199    4.2733   51.3975 H       1  ZINC000151820600    0.0700
     42 H42        -1.5376    4.6720   53.0638 H       1  ZINC000151820600    0.0800
     43 H43        -1.6234    5.9534   51.8313 H       1  ZINC000151820600    0.0700
     44 H44         1.4719    3.0059   51.6408 H       1  ZINC000151820600    0.0900
     45 H45         0.2700    2.9508   52.9525 H       1  ZINC000151820600    0.0700
     46 H46        -0.2123    2.5520   51.2861 H       1  ZINC000151820600    0.0600
     47 H47        -0.5098    0.9466   50.2740 H       1  ZINC000151820600    0.1300
     48 H48         0.7857   -1.0067   49.5192 H       1  ZINC000151820600    0.1400
     49 H49         0.7381   -1.6753   47.1504 H       1  ZINC000151820600    0.1400
     50 H50        -1.9087    1.5598   46.2922 H       1  ZINC000151820600    0.1400
@<TRIPOS>BOND
     1     1     2    1
     2     1    27    1
     3     1    28    1
     4     1    29    1
     5     2     3    2
     6     2     4    1
     7     4     5    1
     8     4    30    1
     9     4    31    1
    10     5     6    1
    11     5    32    1
    12     5    33    1
    13     6     7    1
    14     6    34    1
    15     6    35    1
    16     7     8   am
    17     7    36    1
    18     8     9    2
    19     8    10    1
    20    10    11    1
    21    10    12    1
    22    10    20    1
    23    12    13   am
    24    12    37    1
    25    13    14    2
    26    13    15    1
    27    15    16    1
    28    16    17    1
    29    16    18    1
    30    16    19    1
    31    17    38    1
    32    17    39    1
    33    17    40    1
    34    18    41    1
    35    18    42    1
    36    18    43    1
    37    19    44    1
    38    19    45    1
    39    19    46    1
    40    20    26   ar
    41    20    21   ar
    42    21    22   ar
    43    21    47    1
    44    22    23   ar
    45    22    48    1
    46    23    24   ar
    47    23    49    1
    48    24    25    1
    49    24    26   ar
    50    26    50    1
@<TRIPOS>SUBSTRUCTURE
     1 ZINC000151820600        1 TEMP              0 ****  ****    0 ROOT


##########                                Name:    ZINC000753658424
##########                DOCK_Rotatable_Bonds:                   8
##########                         Heavy_Atoms:                  24
##########                    Molecular_Weight:             332.399
##########                DOCK_Rotatable_Bonds:                   8
##########                       Formal_Charge:        -9.16421e-07
##########                     HBond_Acceptors:                   6
##########                        HBond_Donors:                   3
##########                         Heavy_Atoms:                  24
##########                          Grid_Score:          -31.319820
##########                     Grid_vdw_energy:          -29.789616
##########                      Grid_es_energy:           -1.530205
##########           Internal_energy_repulsive:           15.756269

@<TRIPOS>MOLECULE
ZINC000753658424
 48 49 1 0 0
SMALL
USER_CHARGES


@<TRIPOS>ATOM
      1 C1          2.3017    1.6799   51.6255 C.3     1  ZINC000753658424   -0.2000
      2 C2          1.7320    2.0867   50.2909 C.2     1  ZINC000753658424    0.4400
      3 O3          2.3877    2.7728   49.5351 O.2     1  ZINC000753658424   -0.4500
      4 C4          0.3853    1.6533   49.9058 C.2     1  ZINC000753658424   -0.2500
      5 C5          0.0230    0.3963   49.4473 C.2     1  ZINC000753658424    0.1000
      6 C6          0.9523   -0.7744   49.2556 C.3     1  ZINC000753658424   -0.1000
      7 N7         -1.2958    0.3998   49.2039 N.pl3   1  ZINC000753658424   -0.5300
      8 C8         -1.8099    1.6448   49.4962 C.2     1  ZINC000753658424   -0.0600
      9 C9         -3.2157    2.0471   49.3609 C.2     1  ZINC000753658424    0.5900
     10 O10        -3.5705    2.7050   48.4009 O.2     1  ZINC000753658424   -0.5200
     11 N11        -4.1129    1.6876   50.3002 N.am    1  ZINC000753658424   -0.7300
     12 C12        -5.5151    2.0904   50.1661 C.3     1  ZINC000753658424    0.0900
     13 C13        -6.1056    2.3516   51.5532 C.3     1  ZINC000753658424    0.1900
     14 H14        -6.5265    3.3564   51.5857 H       1  ZINC000753658424    0.1300
     15 O15        -5.0772    2.2338   52.5385 O.3     1  ZINC000753658424   -0.5500
     16 C16        -7.1895    1.3435   51.8356 C.2     1  ZINC000753658424   -0.0600
     17 C17        -7.1429    0.0332   51.5349 C.2     1  ZINC000753658424   -0.1800
     18 C18        -8.3624   -0.5315   51.9742 C.2     1  ZINC000753658424   -0.2100
     19 C19        -9.0812    0.4675   52.5171 C.2     1  ZINC000753658424    0.0000
     20 C20       -10.4558    0.3370   53.1209 C.3     1  ZINC000753658424   -0.0800
     21 O21        -8.3634    1.5997   52.4357 O.3     1  ZINC000753658424   -0.1700
     22 C22        -0.7932    2.4371   49.9375 C.2     1  ZINC000753658424   -0.0100
     23 C23        -0.9008    3.8771   50.3685 C.3     1  ZINC000753658424   -0.0500
     24 C24        -0.1687    4.0675   51.6985 C.3     1  ZINC000753658424   -0.1500
     25 C25        -0.2683    4.7766   49.3047 C.3     1  ZINC000753658424   -0.1500
     26 H26         3.3328    2.0252   51.7008 H       1  ZINC000753658424    0.0800
     27 H27         1.7098    2.1264   52.4244 H       1  ZINC000753658424    0.1000
     28 H28         2.2746    0.5941   51.7163 H       1  ZINC000753658424    0.0900
     29 H29         0.9304   -1.4051   50.1442 H       1  ZINC000753658424    0.0900
     30 H30         0.6319   -1.3547   48.3902 H       1  ZINC000753658424    0.0800
     31 H31         1.9668   -0.4102   49.0934 H       1  ZINC000753658424    0.0900
     32 H32        -1.8076   -0.3554   48.8739 H       1  ZINC000753658424    0.4200
     33 H33        -3.8302    1.1622   51.0650 H       1  ZINC000753658424    0.4000
     34 H34        -5.5762    2.9997   49.5682 H       1  ZINC000753658424    0.0900
     35 H35        -6.0764    1.2950   49.6761 H       1  ZINC000753658424    0.0800
     36 H36        -4.7481    1.3324   52.6578 H       1  ZINC000753658424    0.3900
     37 H37        -6.3302   -0.4874   51.0503 H       1  ZINC000753658424    0.1500
     38 H38        -8.6598   -1.5662   51.8897 H       1  ZINC000753658424    0.1500
     39 H39       -10.3659    0.1104   54.1834 H       1  ZINC000753658424    0.0800
     40 H40       -10.9989    1.2734   52.9939 H       1  ZINC000753658424    0.0800
     41 H41       -10.9967   -0.4673   52.6224 H       1  ZINC000753658424    0.0900
     42 H42        -1.9510    4.1422   50.4907 H       1  ZINC000753658424    0.1100
     43 H43         0.9007    3.9189   51.5489 H       1  ZINC000753658424    0.0500
     44 H44        -0.3469    5.0766   52.0700 H       1  ZINC000753658424    0.0600
     45 H45        -0.5384    3.3426   52.4237 H       1  ZINC000753658424    0.0600
     46 H46        -0.8387    4.7009   48.3790 H       1  ZINC000753658424    0.0500
     47 H47        -0.2747    5.8098   49.6519 H       1  ZINC000753658424    0.0600
     48 H48         0.7592    4.4599   49.1254 H       1  ZINC000753658424    0.0600
@<TRIPOS>BOND
     1     1     2    1
     2     1    26    1
     3     1    27    1
     4     1    28    1
     5     2     3    2
     6     2     4    1
     7     4    22    1
     8     4     5    2
     9     5     6    1
    10     5     7    1
    11     6    29    1
    12     6    30    1
    13     6    31    1
    14     7     8    1
    15     7    32    1
    16     8     9    1
    17     8    22    2
    18     9    10    2
    19     9    11   am
    20    11    12    1
    21    11    33    1
    22    12    13    1
    23    12    34    1
    24    12    35    1
    25    13    14    1
    26    13    15    1
    27    13    16    1
    28    15    36    1
    29    16    21    1
    30    16    17    2
    31    17    18    1
    32    17    37    1
    33    18    19    2
    34    18    38    1
    35    19    20    1
    36    19    21    1
    37    20    39    1
    38    20    40    1
    39    20    41    1
    40    22    23    1
    41    23    24    1
    42    23    25    1
    43    23    42    1
    44    24    43    1
    45    24    44    1
    46    24    45    1
    47    25    46    1
    48    25    47    1
    49    25    48    1
@<TRIPOS>SUBSTRUCTURE
     1 ZINC000753658424        1 TEMP              0 ****  ****    0 ROOT


##########                                Name:    ZINC000461336108
##########                DOCK_Rotatable_Bonds:                   5
##########                         Heavy_Atoms:                  26
##########                    Molecular_Weight:             373.522
##########                DOCK_Rotatable_Bonds:                   5
##########                       Formal_Charge:        -3.42727e-07
##########                     HBond_Acceptors:                   7
##########                        HBond_Donors:                   0
##########                         Heavy_Atoms:                  26
##########                          Grid_Score:          -31.314865
##########                     Grid_vdw_energy:          -30.447823
##########                      Grid_es_energy:           -0.867043
##########           Internal_energy_repulsive:           12.632041

@<TRIPOS>MOLECULE
ZINC000461336108
 53 56 1 0 0
SMALL
USER_CHARGES


@<TRIPOS>ATOM
      1 C1         -1.3799    2.2159   46.5042 C.3     1  ZINC000461336108   -0.1300
      2 C2         -0.7288    1.0365   47.2295 C.3     1  ZINC000461336108    0.0700
      3 H3         -1.3846    0.1680   47.1690 H       1  ZINC000461336108    0.0800
      4 C4          0.5862    0.7147   46.5777 C.2     1  ZINC000461336108    0.5300
      5 O5          0.6496    0.7133   45.3666 O.2     1  ZINC000461336108   -0.5300
      6 N6          1.6898    0.4303   47.2772 N.am    1  ZINC000461336108   -0.6100
      7 C7          2.9141    0.0936   46.5465 C.3     1  ZINC000461336108    0.0700
      8 C8          1.7290    0.4407   48.7367 C.3     1  ZINC000461336108    0.1200
      9 C9          0.3088    0.3641   49.2999 C.3     1  ZINC000461336108    0.0400
     10 N10        -0.5150    1.3890   48.6395 N.3     1  ZINC000461336108   -0.4300
     11 C11        -1.7242    1.5533   49.2961 C.2     1  ZINC000461336108    0.3300
     12 N12        -2.7277    0.7079   49.3059 N.2     1  ZINC000461336108   -0.2500
     13 N13        -3.6897    1.1802   50.0154 N.2     1  ZINC000461336108   -0.2800
     14 C14        -3.3599    2.3453   50.4964 C.2     1  ZINC000461336108    0.2000
     15 C15        -4.2127    3.2222   51.3766 C.3     1  ZINC000461336108   -0.0300
     16 C16        -5.6862    2.8579   51.1851 C.3     1  ZINC000461336108   -0.0900
     17 C17        -6.0364    1.5780   51.9841 C.3     1  ZINC000461336108   -0.1200
     18 C18        -7.5671    1.7073   52.1828 C.3     1  ZINC000461336108   -0.1200
     19 C19        -7.7907    3.2136   52.4293 C.3     1  ZINC000461336108   -0.1300
     20 C20        -6.5949    3.9451   51.7950 C.3     1  ZINC000461336108   -0.1200
     21 N21        -2.0940    2.6222   50.0595 N.pl3   1  ZINC000461336108   -0.4900
     22 C22        -1.3024    3.8214   50.3448 C.3     1  ZINC000461336108    0.1700
     23 C23        -0.2774    3.5066   51.4038 C.2     1  ZINC000461336108   -0.2400
     24 C24         0.9669    3.0873   51.1690 C.2     1  ZINC000461336108   -0.0900
     25 C25         1.7299    2.8618   52.3018 C.2     1  ZINC000461336108   -0.1400
     26 C26         1.1051    3.0981   53.4564 C.2     1  ZINC000461336108   -0.2000
     27 S27        -0.5366    3.6430   53.1380 S.3     1  ZINC000461336108    0.1200
     28 H28        -0.7252    3.0853   46.5637 H       1  ZINC000461336108    0.0800
     29 H29        -1.5426    1.9545   45.4586 H       1  ZINC000461336108    0.0800
     30 H30        -2.3359    2.4481   46.9736 H       1  ZINC000461336108    0.0700
     31 H31         2.7194    0.1306   45.4747 H       1  ZINC000461336108    0.0900
     32 H32         3.6962    0.8098   46.7986 H       1  ZINC000461336108    0.0700
     33 H33         3.2377   -0.9099   46.8227 H       1  ZINC000461336108    0.0600
     34 H34         2.3045   -0.4153   49.0891 H       1  ZINC000461336108    0.0900
     35 H35         2.2049    1.3597   49.0791 H       1  ZINC000461336108    0.0900
     36 H36        -0.1089   -0.6237   49.1054 H       1  ZINC000461336108    0.0500
     37 H37         0.3310    0.5489   50.3740 H       1  ZINC000461336108    0.1100
     38 H38        -3.9336    3.0715   52.4194 H       1  ZINC000461336108    0.0800
     39 H39        -4.0587    4.2671   51.1068 H       1  ZINC000461336108    0.1000
     40 H40        -5.9104    2.7228   50.1270 H       1  ZINC000461336108    0.0900
     41 H41        -5.7958    0.6849   51.4077 H       1  ZINC000461336108    0.0600
     42 H42        -5.5216    1.5695   52.9449 H       1  ZINC000461336108    0.0600
     43 H43        -8.0967    1.3847   51.2864 H       1  ZINC000461336108    0.0700
     44 H44        -7.8899    1.1271   53.0473 H       1  ZINC000461336108    0.0700
     45 H45        -8.7187    3.5355   51.9569 H       1  ZINC000461336108    0.0700
     46 H46        -7.8267    3.4154   53.4999 H       1  ZINC000461336108    0.0600
     47 H47        -6.0505    4.5020   52.5577 H       1  ZINC000461336108    0.0700
     48 H48        -6.9425    4.6222   51.0147 H       1  ZINC000461336108    0.0700
     49 H49        -0.7971    4.1479   49.4357 H       1  ZINC000461336108    0.1200
     50 H50        -1.9599    4.6148   50.7000 H       1  ZINC000461336108    0.1000
     51 H51         1.3499    2.9350   50.1708 H       1  ZINC000461336108    0.1400
     52 H52         2.7533    2.5203   52.2543 H       1  ZINC000461336108    0.1500
     53 H53         1.5417    2.9767   54.4367 H       1  ZINC000461336108    0.1700
@<TRIPOS>BOND
     1     1     2    1
     2     1    28    1
     3     1    29    1
     4     1    30    1
     5     2     3    1
     6     2    10    1
     7     2     4    1
     8     4     5    2
     9     4     6   am
    10     6     7    1
    11     6     8    1
    12     7    31    1
    13     7    32    1
    14     7    33    1
    15     8     9    1
    16     8    34    1
    17     8    35    1
    18     9    10    1
    19     9    36    1
    20     9    37    1
    21    10    11    1
    22    11    21    1
    23    11    12    2
    24    12    13    1
    25    13    14    2
    26    14    15    1
    27    14    21    1
    28    15    16    1
    29    15    38    1
    30    15    39    1
    31    16    20    1
    32    16    17    1
    33    16    40    1
    34    17    18    1
    35    17    41    1
    36    17    42    1
    37    18    19    1
    38    18    43    1
    39    18    44    1
    40    19    20    1
    41    19    45    1
    42    19    46    1
    43    20    47    1
    44    20    48    1
    45    21    22    1
    46    22    23    1
    47    22    49    1
    48    22    50    1
    49    23    27    1
    50    23    24    2
    51    24    25    1
    52    24    51    1
    53    25    26    2
    54    25    52    1
    55    26    27    1
    56    26    53    1
@<TRIPOS>SUBSTRUCTURE
     1 ZINC000461336108        1 TEMP              0 ****  ****    0 ROOT


##########                                Name:    ZINC000151850193
##########                DOCK_Rotatable_Bonds:                  11
##########                         Heavy_Atoms:                  23
##########                    Molecular_Weight:             328.452
##########                DOCK_Rotatable_Bonds:                  11
##########                       Formal_Charge:            0.039999
##########                     HBond_Acceptors:                   6
##########                        HBond_Donors:                   2
##########                         Heavy_Atoms:                  23
##########                          Grid_Score:          -31.309511
##########                     Grid_vdw_energy:          -30.264919
##########                      Grid_es_energy:           -1.044592
##########           Internal_energy_repulsive:           29.244238

@<TRIPOS>MOLECULE
ZINC000151850193
 55 55 1 0 0
SMALL
USER_CHARGES


@<TRIPOS>ATOM
      1 C1          2.2340   -0.6008   47.6521 C.3     1  ZINC000151850193   -0.1500
      2 C2          1.6463    0.4592   48.5860 C.3     1  ZINC000151850193   -0.1000
      3 C3          0.2570    0.8632   48.0886 C.3     1  ZINC000151850193   -0.0800
      4 C4         -0.6436   -0.3394   47.7998 C.3     1  ZINC000151850193   -0.1000
      5 C5         -0.7974   -1.1781   49.0702 C.3     1  ZINC000151850193   -0.1500
      6 C6         -0.4149    1.9456   48.9500 C.3     1  ZINC000151850193    0.1400
      7 H7         -0.0604    1.9660   49.9805 H       1  ZINC000151850193    0.1000
      8 N8         -1.8765    1.9508   48.8508 N.am    1  ZINC000151850193   -0.7000
      9 C9         -2.6123    2.6011   49.7742 C.2     1  ZINC000151850193    0.5200
     10 O10        -2.0642    3.1804   50.6879 O.2     1  ZINC000151850193   -0.5300
     11 C11        -4.1157    2.6079   49.6713 C.3     1  ZINC000151850193   -0.1500
     12 C12        -4.6773    1.3432   50.3239 C.3     1  ZINC000151850193    0.1500
     13 N13        -4.8823    1.5818   51.7548 N.am    1  ZINC000151850193   -0.7100
     14 C14        -6.1308    1.6057   52.2619 C.2     1  ZINC000151850193    0.6500
     15 O15        -7.0864    1.4308   51.5321 O.2     1  ZINC000151850193   -0.5600
     16 O16        -6.3191    1.8234   53.5772 O.3     1  ZINC000151850193   -0.3700
     17 C17        -6.8024    3.1364   53.9653 C.3     1  ZINC000151850193    0.1400
     18 C18        -6.2135    3.5151   55.3257 C.3     1  ZINC000151850193   -0.1800
     19 C19        -6.3737    4.1674   52.9193 C.3     1  ZINC000151850193   -0.1400
     20 C20        -8.3293    3.1104   54.0599 C.3     1  ZINC000151850193   -0.1800
     21 C21         0.2696    2.9814   48.0425 C.3     1  ZINC000151850193   -0.1700
     22 C22         0.2866    1.8979   46.9514 C.3     1  ZINC000151850193    0.0700
     23 H23         1.2076    1.8797   46.3684 H       1  ZINC000151850193    0.0800
     24 O24        -0.8866    1.8884   46.1357 O.3     1  ZINC000151850193   -0.3700
     25 C25        -0.7022    2.4736   44.8451 C.3     1  ZINC000151850193    0.0300
     26 H26         1.6009   -1.4880   47.6654 H       1  ZINC000151850193    0.0600
     27 H27         2.2831   -0.2045   46.6379 H       1  ZINC000151850193    0.0600
     28 H28         3.2368   -0.8650   47.9879 H       1  ZINC000151850193    0.0600
     29 H29         1.5672    0.0518   49.5939 H       1  ZINC000151850193    0.0700
     30 H30         2.2966    1.3339   48.5977 H       1  ZINC000151850193    0.0700
     31 H31        -1.6234    0.0102   47.4744 H       1  ZINC000151850193    0.0700
     32 H32        -0.1958   -0.9483   47.0145 H       1  ZINC000151850193    0.0700
     33 H33         0.1718   -1.5879   49.3546 H       1  ZINC000151850193    0.0500
     34 H34        -1.1771   -0.5502   49.8763 H       1  ZINC000151850193    0.0500
     35 H35        -1.4964   -1.9936   48.8848 H       1  ZINC000151850193    0.0500
     36 H36        -2.3148    1.4865   48.1207 H       1  ZINC000151850193    0.4100
     37 H37        -4.5107    3.4863   50.1818 H       1  ZINC000151850193    0.1000
     38 H38        -4.4080    2.6357   48.6216 H       1  ZINC000151850193    0.1000
     39 H39        -5.6288    1.0860   49.8585 H       1  ZINC000151850193    0.0800
     40 H40        -3.9735    0.5218   50.1898 H       1  ZINC000151850193    0.0800
     41 H41        -4.1195    1.7227   52.3372 H       1  ZINC000151850193    0.4100
     42 H42        -5.1258    3.5335   55.2583 H       1  ZINC000151850193    0.0600
     43 H43        -6.5764    4.5006   55.6171 H       1  ZINC000151850193    0.0700
     44 H44        -6.5189    2.7805   56.0710 H       1  ZINC000151850193    0.0900
     45 H45        -6.7932    3.8977   51.9501 H       1  ZINC000151850193    0.0700
     46 H46        -6.7365    5.1531   53.2106 H       1  ZINC000151850193    0.0800
     47 H47        -5.2860    4.1859   52.8519 H       1  ZINC000151850193    0.0700
     48 H48        -8.6347    2.3759   54.8050 H       1  ZINC000151850193    0.0900
     49 H49        -8.6921    4.0961   54.3513 H       1  ZINC000151850193    0.0700
     50 H50        -8.7488    2.8407   53.0906 H       1  ZINC000151850193    0.0600
     51 H51        -0.3630    3.8353   47.8001 H       1  ZINC000151850193    0.0800
     52 H52         1.2629    3.2726   48.3843 H       1  ZINC000151850193    0.1000
     53 H53        -0.3974    3.5140   44.9582 H       1  ZINC000151850193    0.0400
     54 H54         0.0697    1.9257   44.3047 H       1  ZINC000151850193    0.0400
     55 H55        -1.6379    2.4276   44.2881 H       1  ZINC000151850193    0.0900
@<TRIPOS>BOND
     1     1     2    1
     2     1    26    1
     3     1    27    1
     4     1    28    1
     5     2     3    1
     6     2    29    1
     7     2    30    1
     8     3    22    1
     9     3     4    1
    10     3     6    1
    11     4     5    1
    12     4    31    1
    13     4    32    1
    14     5    33    1
    15     5    34    1
    16     5    35    1
    17     6     7    1
    18     6     8    1
    19     6    21    1
    20     8     9   am
    21     8    36    1
    22     9    10    2
    23     9    11    1
    24    11    12    1
    25    11    37    1
    26    11    38    1
    27    12    13    1
    28    12    39    1
    29    12    40    1
    30    13    14   am
    31    13    41    1
    32    14    15    2
    33    14    16    1
    34    16    17    1
    35    17    18    1
    36    17    19    1
    37    17    20    1
    38    18    42    1
    39    18    43    1
    40    18    44    1
    41    19    45    1
    42    19    46    1
    43    19    47    1
    44    20    48    1
    45    20    49    1
    46    20    50    1
    47    21    22    1
    48    21    51    1
    49    21    52    1
    50    22    23    1
    51    22    24    1
    52    24    25    1
    53    25    53    1
    54    25    54    1
    55    25    55    1
@<TRIPOS>SUBSTRUCTURE
     1 ZINC000151850193        1 TEMP              0 ****  ****    0 ROOT


##########                                Name:    ZINC000263872566
##########                DOCK_Rotatable_Bonds:                   9
##########                         Heavy_Atoms:                  26
##########                    Molecular_Weight:             362.469
##########                DOCK_Rotatable_Bonds:                   9
##########                       Formal_Charge:           0.0300001
##########                     HBond_Acceptors:                   6
##########                        HBond_Donors:                   2
##########                         Heavy_Atoms:                  26
##########                          Grid_Score:          -31.293344
##########                     Grid_vdw_energy:          -30.230196
##########                      Grid_es_energy:           -1.063148
##########           Internal_energy_repulsive:           19.608421

@<TRIPOS>MOLECULE
ZINC000263872566
 56 57 1 0 0
SMALL
USER_CHARGES


@<TRIPOS>ATOM
      1 C1         -0.1294   -0.6186   44.3916 C.3     1  ZINC000263872566   -0.1800
      2 C2          0.8324    0.4375   44.9399 C.3     1  ZINC000263872566    0.1400
      3 H3          1.8028   -0.0201   45.1328 H       1  ZINC000263872566    0.0700
      4 O4          0.9829    1.4876   43.9825 O.3     1  ZINC000263872566   -0.5600
      5 C5          0.2796    1.0027   46.2228 C.ar    1  ZINC000263872566   -0.0800
      6 C6         -0.0344    2.3463   46.3074 C.ar    1  ZINC000263872566   -0.0900
      7 C7         -0.5414    2.8650   47.4842 C.ar    1  ZINC000263872566   -0.1000
      8 C8         -0.7349    2.0399   48.5763 C.ar    1  ZINC000263872566   -0.1100
      9 C9         -1.2873    2.6053   49.8594 C.3     1  ZINC000263872566    0.1800
     10 N10        -2.7326    2.3720   49.9134 N.am    1  ZINC000263872566   -0.7400
     11 C11        -3.5126    3.1529   50.6870 C.2     1  ZINC000263872566    0.7100
     12 O12        -3.0169    4.0508   51.3398 O.2     1  ZINC000263872566   -0.5900
     13 N13        -4.8424    2.9383   50.7368 N.am    1  ZINC000263872566   -0.6300
     14 C14        -5.4552    1.8534   49.9582 C.3     1  ZINC000263872566    0.1100
     15 C15        -6.2836    0.9763   50.9022 C.3     1  ZINC000263872566   -0.1200
     16 C16        -7.2861    1.8518   51.6575 C.3     1  ZINC000263872566   -0.0800
     17 C17        -8.1259    0.9874   52.5622 C.2     1  ZINC000263872566    0.4700
     18 O18        -8.3175   -0.1724   52.2826 O.2     1  ZINC000263872566   -0.5000
     19 O19        -8.6612    1.5059   53.6786 O.3     1  ZINC000263872566   -0.3500
     20 C20       -10.0896    1.7666   53.6652 C.3     1  ZINC000263872566    0.1200
     21 C21       -10.4992    2.2920   52.2879 C.3     1  ZINC000263872566   -0.1800
     22 C22       -10.8472    0.4712   53.9631 C.3     1  ZINC000263872566   -0.1400
     23 C23       -10.4273    2.8113   54.7307 C.3     1  ZINC000263872566   -0.1800
     24 C24        -6.5320    2.8861   52.4965 C.3     1  ZINC000263872566   -0.1300
     25 C25        -5.7057    3.7811   51.5753 C.3     1  ZINC000263872566    0.1300
     26 C26        -0.4223    0.6960   48.4913 C.ar    1  ZINC000263872566   -0.1000
     27 C27         0.0813    0.1767   47.3133 C.ar    1  ZINC000263872566   -0.1100
     28 H28        -1.0997   -0.1610   44.1988 H       1  ZINC000263872566    0.0700
     29 H29         0.2705   -1.0274   43.4637 H       1  ZINC000263872566    0.0600
     30 H30        -0.2442   -1.4195   45.1219 H       1  ZINC000263872566    0.0700
     31 H31         0.1689    1.9791   43.8064 H       1  ZINC000263872566    0.3800
     32 H32         0.1168    2.9909   45.4542 H       1  ZINC000263872566    0.1300
     33 H33        -0.7861    3.9148   47.5505 H       1  ZINC000263872566    0.1300
     34 H34        -0.8083    2.1165   50.7077 H       1  ZINC000263872566    0.0800
     35 H35        -1.0905    3.6766   49.8987 H       1  ZINC000263872566    0.0800
     36 H36        -3.1282    1.6557   49.3926 H       1  ZINC000263872566    0.4000
     37 H37        -6.1026    2.2759   49.1897 H       1  ZINC000263872566    0.0800
     38 H38        -4.6747    1.2524   49.4917 H       1  ZINC000263872566    0.0800
     39 H39        -6.8206    0.2249   50.3232 H       1  ZINC000263872566    0.0900
     40 H40        -5.6223    0.4830   51.6146 H       1  ZINC000263872566    0.0800
     41 H41        -7.9310    2.3641   50.9435 H       1  ZINC000263872566    0.1100
     42 H42       -10.2586    1.5475   51.5288 H       1  ZINC000263872566    0.0600
     43 H43       -11.5715    2.4877   52.2778 H       1  ZINC000263872566    0.0700
     44 H44        -9.9594    3.2148   52.0757 H       1  ZINC000263872566    0.0800
     45 H45       -10.5555    0.0969   54.9442 H       1  ZINC000263872566    0.0700
     46 H46       -11.9195    0.6669   53.9529 H       1  ZINC000263872566    0.0800
     47 H47       -10.6066   -0.2732   53.2039 H       1  ZINC000263872566    0.0700
     48 H48        -9.8876    3.7343   54.5185 H       1  ZINC000263872566    0.0800
     49 H49       -11.4995    3.0071   54.7207 H       1  ZINC000263872566    0.0700
     50 H50       -10.1355    2.4372   55.7119 H       1  ZINC000263872566    0.0600
     51 H51        -7.2459    3.4942   53.0521 H       1  ZINC000263872566    0.0900
     52 H52        -5.8684    2.3749   53.1938 H       1  ZINC000263872566    0.0700
     53 H53        -5.0916    4.4538   52.1739 H       1  ZINC000263872566    0.1000
     54 H54        -6.3713    4.3617   50.9365 H       1  ZINC000263872566    0.0700
     55 H55        -0.5737    0.0513   49.3444 H       1  ZINC000263872566    0.1300
     56 H56         0.3255   -0.8732   47.2469 H       1  ZINC000263872566    0.1300
@<TRIPOS>BOND
     1     1     2    1
     2     1    28    1
     3     1    29    1
     4     1    30    1
     5     2     3    1
     6     2     4    1
     7     2     5    1
     8     4    31    1
     9     5    27   ar
    10     5     6   ar
    11     6     7   ar
    12     6    32    1
    13     7     8   ar
    14     7    33    1
    15     8     9    1
    16     8    26   ar
    17     9    10    1
    18     9    34    1
    19     9    35    1
    20    10    11   am
    21    10    36    1
    22    11    12    2
    23    11    13   am
    24    13    25    1
    25    13    14    1
    26    14    15    1
    27    14    37    1
    28    14    38    1
    29    15    16    1
    30    15    39    1
    31    15    40    1
    32    16    17    1
    33    16    24    1
    34    16    41    1
    35    17    18    2
    36    17    19    1
    37    19    20    1
    38    20    21    1
    39    20    22    1
    40    20    23    1
    41    21    42    1
    42    21    43    1
    43    21    44    1
    44    22    45    1
    45    22    46    1
    46    22    47    1
    47    23    48    1
    48    23    49    1
    49    23    50    1
    50    24    25    1
    51    24    51    1
    52    24    52    1
    53    25    53    1
    54    25    54    1
    55    26    27   ar
    56    26    55    1
    57    27    56    1
@<TRIPOS>SUBSTRUCTURE
     1 ZINC000263872566        1 TEMP              0 ****  ****    0 ROOT


##########                                Name:    ZINC000426805817
##########                DOCK_Rotatable_Bonds:                   6
##########                         Heavy_Atoms:                  26
##########                    Molecular_Weight:             412.286
##########                DOCK_Rotatable_Bonds:                   6
##########                       Formal_Charge:          -0.0100001
##########                     HBond_Acceptors:                   5
##########                        HBond_Donors:                   4
##########                         Heavy_Atoms:                  26
##########                          Grid_Score:          -31.284607
##########                     Grid_vdw_energy:          -29.934530
##########                      Grid_es_energy:           -1.350077
##########           Internal_energy_repulsive:            6.307903

@<TRIPOS>MOLECULE
ZINC000426805817
 44 47 1 0 0
SMALL
USER_CHARGES


@<TRIPOS>ATOM
      1 O1         -0.6781   -1.3987   45.4155 O.co2   1  ZINC000426805817   -0.6300
      2 C2         -0.2264   -0.2827   45.6079 C.2     1  ZINC000426805817    0.5000
      3 O3          0.7272    0.1094   44.9572 O.co2   1  ZINC000426805817   -0.6800
      4 C4         -0.8504    0.6143   46.6457 C.3     1  ZINC000426805817   -0.0500
      5 H5         -1.9047    0.7622   46.4115 H       1  ZINC000426805817    0.1300
      6 C6         -0.7207   -0.0345   48.0252 C.3     1  ZINC000426805817   -0.0500
      7 C7         -0.5178    1.0356   49.0666 C.2     1  ZINC000426805817   -0.1900
      8 C8          0.6508    1.4070   49.6129 C.2     1  ZINC000426805817    0.0500
      9 N9          0.4436    2.4091   50.5212 N.pl3   1  ZINC000426805817   -0.5900
     10 C10        -0.8980    2.7150   50.5833 C.ar    1  ZINC000426805817    0.1100
     11 C11        -1.6360    3.6328   51.3228 C.ar    1  ZINC000426805817   -0.1200
     12 C12        -3.0021    3.7058   51.1617 C.ar    1  ZINC000426805817   -0.0700
     13 C13        -3.6551    2.8700   50.2651 C.ar    1  ZINC000426805817   -0.1100
     14 Br14       -5.5315    2.9907   50.0628 Br      1  ZINC000426805817   -0.0400
     15 C15        -2.9438    1.9542   49.5222 C.ar    1  ZINC000426805817   -0.0400
     16 C16        -1.5579    1.8724   49.6702 C.ar    1  ZINC000426805817   -0.1000
     17 N17        -0.1627    1.9124   46.6483 N.4     1  ZINC000426805817   -0.4800
     18 H18        -0.3229    2.3761   47.5300 H       1  ZINC000426805817    0.4000
     19 H19         0.8276    1.7686   46.5191 H       1  ZINC000426805817    0.4200
     20 C20        -0.6833    2.7447   45.5555 C.3     1  ZINC000426805817    0.0400
     21 C21         0.0963    4.0326   45.4898 C.ar    1  ZINC000426805817   -0.1600
     22 C22         0.2600    4.6878   44.2739 C.ar    1  ZINC000426805817    0.1100
     23 N23        -0.1572    4.4205   42.9892 N.pl3   1  ZINC000426805817   -0.5900
     24 C24         0.2808    5.4034   42.1439 C.2     1  ZINC000426805817    0.0600
     25 C25         0.9799    6.3203   42.8312 C.2     1  ZINC000426805817   -0.2000
     26 C26         0.9906    5.8896   44.2313 C.ar    1  ZINC000426805817   -0.1100
     27 C27         1.5419    6.4113   45.4028 C.ar    1  ZINC000426805817   -0.0400
     28 C28         1.3688    5.7510   46.5867 C.ar    1  ZINC000426805817   -0.1500
     29 C29         0.6445    4.5681   46.6349 C.ar    1  ZINC000426805817   -0.0700
     30 H30        -1.6288   -0.5936   48.2506 H       1  ZINC000426805817    0.1200
     31 H31         0.1334   -0.7119   48.0292 H       1  ZINC000426805817    0.0900
     32 H32         1.6120    0.9781   49.3714 H       1  ZINC000426805817    0.1700
     33 H33         1.1382    2.8400   51.0436 H       1  ZINC000426805817    0.4200
     34 H34        -1.1385    4.2874   52.0232 H       1  ZINC000426805817    0.1300
     35 H35        -3.5710    4.4199   51.7385 H       1  ZINC000426805817    0.1400
     36 H36        -3.4546    1.3057   48.8259 H       1  ZINC000426805817    0.1400
     37 H37        -0.5816    2.2098   44.6113 H       1  ZINC000426805817    0.1500
     38 H38        -1.7352    2.9656   45.7365 H       1  ZINC000426805817    0.1300
     39 H39        -0.6828    3.6500   42.7230 H       1  ZINC000426805817    0.4300
     40 H40         0.0921    5.4364   41.0810 H       1  ZINC000426805817    0.1800
     41 H41         1.4463    7.2071   42.4283 H       1  ZINC000426805817    0.1500
     42 H42         2.1035    7.3334   45.3736 H       1  ZINC000426805817    0.1300
     43 H43         1.7956    6.1551   47.4928 H       1  ZINC000426805817    0.1300
     44 H44         0.5164    4.0577   47.5781 H       1  ZINC000426805817    0.1300
@<TRIPOS>BOND
     1     1     2   ar
     2     2     3   ar
     3     2     4    1
     4     4     5    1
     5     4     6    1
     6     4    17    1
     7     6     7    1
     8     6    30    1
     9     6    31    1
    10     7    16    1
    11     7     8    2
    12     8     9    1
    13     8    32    1
    14     9    10    1
    15     9    33    1
    16    10    16   ar
    17    10    11   ar
    18    11    12   ar
    19    11    34    1
    20    12    13   ar
    21    12    35    1
    22    13    14    1
    23    13    15   ar
    24    15    16   ar
    25    15    36    1
    26    17    18    1
    27    17    19    1
    28    17    20    1
    29    20    21    1
    30    20    37    1
    31    20    38    1
    32    21    29   ar
    33    21    22   ar
    34    22    26   ar
    35    22    23    1
    36    23    24    1
    37    23    39    1
    38    24    25    2
    39    24    40    1
    40    25    26    1
    41    25    41    1
    42    26    27   ar
    43    27    28   ar
    44    27    42    1
    45    28    29   ar
    46    28    43    1
    47    29    44    1
@<TRIPOS>SUBSTRUCTURE
     1 ZINC000426805817        1 TEMP              0 ****  ****    0 ROOT


##########                                Name:    ZINC000020646552
##########                DOCK_Rotatable_Bonds:                   5
##########                         Heavy_Atoms:                  29
##########                    Molecular_Weight:             412.556
##########                DOCK_Rotatable_Bonds:                   5
##########                       Formal_Charge:          -0.0200012
##########                     HBond_Acceptors:                   7
##########                        HBond_Donors:                   0
##########                         Heavy_Atoms:                  29
##########                          Grid_Score:          -31.274639
##########                     Grid_vdw_energy:          -31.003956
##########                      Grid_es_energy:           -0.270683
##########           Internal_energy_repulsive:           10.900401

@<TRIPOS>MOLECULE
ZINC000020646552
 57 60 1 0 0
SMALL
USER_CHARGES


@<TRIPOS>ATOM
      1 C1         -0.2376    4.4569   59.6475 C.3     1  ZINC000020646552    0.0200
      2 N2         -0.6069    3.9902   58.3045 N.3     1  ZINC000020646552   -0.5400
      3 C3          0.5638    3.9586   57.4177 C.3     1  ZINC000020646552    0.0400
      4 C4          0.1768    3.2992   56.0896 C.3     1  ZINC000020646552    0.1200
      5 N5         -0.9970    3.9987   55.5453 N.am    1  ZINC000020646552   -0.6100
      6 C6         -1.0054    4.4514   54.2758 C.2     1  ZINC000020646552    0.5300
      7 O7         -0.0370    4.2827   53.5655 O.2     1  ZINC000020646552   -0.5200
      8 C8         -2.2181    5.1670   53.7391 C.3     1  ZINC000020646552   -0.1500
      9 S9         -2.0684    5.3449   51.9441 S.3     1  ZINC000020646552    0.0500
     10 C10        -2.8236    3.8406   51.4235 C.ar    1  ZINC000020646552    0.1500
     11 N11        -4.0238    3.4960   51.8774 N.ar    1  ZINC000020646552   -0.5200
     12 C12        -4.5923    2.3641   51.4861 C.ar    1  ZINC000020646552    0.3800
     13 C13        -5.9343    2.0102   52.0096 C.ar    1  ZINC000020646552   -0.0500
     14 C14        -6.4568    2.6875   53.1099 C.ar    1  ZINC000020646552   -0.0700
     15 C15        -7.7062    2.3544   53.5923 C.ar    1  ZINC000020646552   -0.1300
     16 C16        -8.4394    1.3504   52.9860 C.ar    1  ZINC000020646552   -0.1000
     17 C17        -7.9256    0.6744   51.8940 C.ar    1  ZINC000020646552   -0.1300
     18 C18        -6.6798    1.0030   51.3994 C.ar    1  ZINC000020646552   -0.0700
     19 N19        -3.9919    1.5412   50.6388 N.ar    1  ZINC000020646552   -0.5200
     20 C20        -2.7919    1.8235   50.1472 C.ar    1  ZINC000020646552    0.2100
     21 C21        -2.1707    2.9930   50.5210 C.ar    1  ZINC000020646552   -0.2100
     22 C22        -0.8169    3.3758   49.9900 C.3     1  ZINC000020646552    0.1100
     23 O23        -0.1784    2.2404   49.4047 O.3     1  ZINC000020646552   -0.3600
     24 C24        -1.0005    1.5608   48.4492 C.3     1  ZINC000020646552    0.1100
     25 C25        -1.5841    2.5730   47.4614 C.3     1  ZINC000020646552   -0.1800
     26 C26        -0.1622    0.5288   47.6921 C.3     1  ZINC000020646552   -0.1400
     27 C27        -2.1390    0.8605   49.1911 C.3     1  ZINC000020646552   -0.0900
     28 C28        -2.1615    4.1906   56.4230 C.3     1  ZINC000020646552    0.1100
     29 C29        -1.6825    4.8149   57.7379 C.3     1  ZINC000020646552    0.0400
     30 H30        -1.1056    4.3984   60.3040 H       1  ZINC000020646552    0.0700
     31 H31         0.5606    3.8291   60.0437 H       1  ZINC000020646552    0.0700
     32 H32         0.1065    5.4897   59.5914 H       1  ZINC000020646552    0.0300
     33 H33         0.9071    4.9764   57.2320 H       1  ZINC000020646552    0.0400
     34 H34         1.3621    3.3855   57.8894 H       1  ZINC000020646552    0.0900
     35 H35         1.0068    3.3757   55.3873 H       1  ZINC000020646552    0.1000
     36 H36        -0.0677    2.2507   56.2590 H       1  ZINC000020646552    0.0800
     37 H37        -3.1133    4.5912   53.9738 H       1  ZINC000020646552    0.1300
     38 H38        -2.2902    6.1535   54.1972 H       1  ZINC000020646552    0.1200
     39 H39        -5.8850    3.4714   53.5842 H       1  ZINC000020646552    0.1400
     40 H40        -8.1120    2.8784   54.4451 H       1  ZINC000020646552    0.1300
     41 H41        -9.4167    1.0930   53.3669 H       1  ZINC000020646552    0.1300
     42 H42        -8.5024   -0.1089   51.4247 H       1  ZINC000020646552    0.1300
     43 H43        -6.2795    0.4747   50.5467 H       1  ZINC000020646552    0.1300
     44 H44        -0.9316    4.1545   49.2359 H       1  ZINC000020646552    0.0800
     45 H45        -0.2024    3.7547   50.8067 H       1  ZINC000020646552    0.1100
     46 H46        -0.7728    3.0837   46.9428 H       1  ZINC000020646552    0.0700
     47 H47        -2.2093    2.0534   46.7354 H       1  ZINC000020646552    0.0700
     48 H48        -2.1859    3.3032   48.0025 H       1  ZINC000020646552    0.0600
     49 H49         0.2471   -0.1947   48.3971 H       1  ZINC000020646552    0.0700
     50 H50        -0.7902    0.0131   46.9656 H       1  ZINC000020646552    0.0800
     51 H51         0.6537    1.0330   47.1740 H       1  ZINC000020646552    0.0700
     52 H52        -1.7404    0.0154   49.7523 H       1  ZINC000020646552    0.1000
     53 H53        -2.8748    0.5022   48.4711 H       1  ZINC000020646552    0.1000
     54 H54        -2.8774    4.8564   55.9410 H       1  ZINC000020646552    0.0900
     55 H55        -2.6309    3.2277   56.6244 H       1  ZINC000020646552    0.0800
     56 H56        -2.5133    4.8627   58.4417 H       1  ZINC000020646552    0.0900
     57 H57        -1.3079    5.8207   57.5478 H       1  ZINC000020646552    0.0400
@<TRIPOS>BOND
     1     1     2    1
     2     1    30    1
     3     1    31    1
     4     1    32    1
     5     2    29    1
     6     2     3    1
     7     3     4    1
     8     3    33    1
     9     3    34    1
    10     4     5    1
    11     4    35    1
    12     4    36    1
    13     5     6   am
    14     5    28    1
    15     6     7    2
    16     6     8    1
    17     8     9    1
    18     8    37    1
    19     8    38    1
    20     9    10    1
    21    10    21   ar
    22    10    11   ar
    23    11    12   ar
    24    12    13    1
    25    12    19   ar
    26    13    18   ar
    27    13    14   ar
    28    14    15   ar
    29    14    39    1
    30    15    16   ar
    31    15    40    1
    32    16    17   ar
    33    16    41    1
    34    17    18   ar
    35    17    42    1
    36    18    43    1
    37    19    20   ar
    38    20    27    1
    39    20    21   ar
    40    21    22    1
    41    22    23    1
    42    22    44    1
    43    22    45    1
    44    23    24    1
    45    24    25    1
    46    24    26    1
    47    24    27    1
    48    25    46    1
    49    25    47    1
    50    25    48    1
    51    26    49    1
    52    26    50    1
    53    26    51    1
    54    27    52    1
    55    27    53    1
    56    28    29    1
    57    28    54    1
    58    28    55    1
    59    29    56    1
    60    29    57    1
@<TRIPOS>SUBSTRUCTURE
     1 ZINC000020646552        1 TEMP              0 ****  ****    0 ROOT


##########                                Name:    ZINC001296589646
##########                DOCK_Rotatable_Bonds:                   8
##########                         Heavy_Atoms:                  29
##########                    Molecular_Weight:             398.548
##########                DOCK_Rotatable_Bonds:                   8
##########                       Formal_Charge:          -0.0200008
##########                     HBond_Acceptors:                   6
##########                        HBond_Donors:                   0
##########                         Heavy_Atoms:                  29
##########                          Grid_Score:          -31.262932
##########                     Grid_vdw_energy:          -30.888788
##########                      Grid_es_energy:           -0.374144
##########           Internal_energy_repulsive:           28.134398

@<TRIPOS>MOLECULE
ZINC001296589646
 63 66 1 0 0
SMALL
USER_CHARGES


@<TRIPOS>ATOM
      1 C1         -0.5248    1.9600   44.7160 C.3     1  ZINC001296589646   -0.1500
      2 C2         -0.8141    1.3609   46.0938 C.3     1  ZINC001296589646    0.0500
      3 O3          0.3659    1.4229   46.8975 O.3     1  ZINC001296589646   -0.3600
      4 C4          0.2927    0.6511   48.0979 C.3     1  ZINC001296589646    0.1800
      5 C5         -0.9915    0.9309   48.8352 C.2     1  ZINC001296589646    0.1500
      6 N6         -1.8077    0.0433   49.3287 N.2     1  ZINC001296589646   -0.2600
      7 N7         -2.8046    0.6267   49.8926 N.2     1  ZINC001296589646   -0.3200
      8 C8         -2.6766    1.9284   49.7882 C.2     1  ZINC001296589646    0.3600
      9 N9         -3.5547    2.8841   50.2744 N.3     1  ZINC001296589646   -0.4300
     10 C10        -4.8367    2.8596   49.5249 C.3     1  ZINC001296589646    0.0300
     11 C11        -5.8256    3.5591   50.4909 C.3     1  ZINC001296589646   -0.1200
     12 C12        -5.3693    3.0535   51.8787 C.3     1  ZINC001296589646   -0.1000
     13 H13        -5.9813    2.2084   52.1935 H       1  ZINC001296589646    0.0800
     14 C14        -5.4530    4.1817   52.9088 C.3     1  ZINC001296589646   -0.1400
     15 C15        -3.9068    2.6116   51.6848 C.3     1  ZINC001296589646    0.0500
     16 N16        -1.5130    2.1634   49.1155 N.pl3   1  ZINC001296589646   -0.4600
     17 C17        -0.9451    3.4660   48.7589 C.3     1  ZINC001296589646    0.1000
     18 C18        -0.8032    4.3227   50.0186 C.3     1  ZINC001296589646   -0.1300
     19 C19         0.3462    3.7856   50.8737 C.3     1  ZINC001296589646   -0.0500
     20 H20         0.4136    2.7044   50.7541 H       1  ZINC001296589646    0.0800
     21 C21         1.6593    4.4311   50.4266 C.3     1  ZINC001296589646   -0.1500
     22 C22         0.0916    4.1158   52.3219 C.ar    1  ZINC001296589646   -0.0800
     23 C23         0.5030    3.2435   53.3124 C.ar    1  ZINC001296589646   -0.1100
     24 C24         0.2694    3.5463   54.6407 C.ar    1  ZINC001296589646   -0.1200
     25 C25        -0.3752    4.7216   54.9787 C.ar    1  ZINC001296589646   -0.1200
     26 C26        -0.7857    5.5942   53.9884 C.ar    1  ZINC001296589646   -0.1200
     27 C27        -0.5483    5.2934   52.6602 C.ar    1  ZINC001296589646   -0.1200
     28 C28         1.5252    0.9198   49.0038 C.3     1  ZINC001296589646   -0.1400
     29 C29         2.5604   -0.0555   48.3891 C.3     1  ZINC001296589646    0.0600
     30 O30         1.8030   -1.2151   48.0082 O.3     1  ZINC001296589646   -0.3700
     31 C31         0.4335   -0.8555   47.7918 C.3     1  ZINC001296589646    0.0400
     32 H32        -0.3021    3.0219   44.8210 H       1  ZINC001296589646    0.0600
     33 H33         0.3306    1.4516   44.2712 H       1  ZINC001296589646    0.0700
     34 H34        -1.3968    1.8334   44.0744 H       1  ZINC001296589646    0.0700
     35 H35        -1.6119    1.9263   46.5756 H       1  ZINC001296589646    0.0500
     36 H36        -1.1225    0.3217   45.9808 H       1  ZINC001296589646    0.0600
     37 H37        -4.7485    3.4185   48.5933 H       1  ZINC001296589646    0.0900
     38 H38        -5.1494    1.8335   49.3309 H       1  ZINC001296589646    0.0600
     39 H39        -5.7286    4.6427   50.4240 H       1  ZINC001296589646    0.0800
     40 H40        -6.8502    3.2491   50.2852 H       1  ZINC001296589646    0.0800
     41 H41        -6.4867    4.5162   52.9980 H       1  ZINC001296589646    0.0600
     42 H42        -5.1043    3.8179   53.8753 H       1  ZINC001296589646    0.0600
     43 H43        -4.8281    5.0148   52.5870 H       1  ZINC001296589646    0.0600
     44 H44        -3.8104    1.5459   51.8924 H       1  ZINC001296589646    0.0800
     45 H45        -3.2556    3.1820   52.3470 H       1  ZINC001296589646    0.0900
     46 H46         0.0352    3.3229   48.3044 H       1  ZINC001296589646    0.1100
     47 H47        -1.6042    3.9680   48.0505 H       1  ZINC001296589646    0.1000
     48 H48        -0.5939    5.3541   49.7349 H       1  ZINC001296589646    0.0800
     49 H49        -1.7304    4.2841   50.5904 H       1  ZINC001296589646    0.0700
     50 H50         2.4782    4.0486   51.0359 H       1  ZINC001296589646    0.0600
     51 H51         1.8434    4.1923   49.3792 H       1  ZINC001296589646    0.0600
     52 H52         1.5919    5.5125   50.5464 H       1  ZINC001296589646    0.0600
     53 H53         1.0066    2.3253   53.0482 H       1  ZINC001296589646    0.1200
     54 H54         0.5902    2.8645   55.4144 H       1  ZINC001296589646    0.1200
     55 H55        -0.5582    4.9578   56.0166 H       1  ZINC001296589646    0.1200
     56 H56        -1.2896    6.5122   54.2525 H       1  ZINC001296589646    0.1200
     57 H57        -0.8691    5.9752   51.8865 H       1  ZINC001296589646    0.1200
     58 H58         1.8593    1.9537   48.9161 H       1  ZINC001296589646    0.1000
     59 H59         1.3130    0.6643   50.0420 H       1  ZINC001296589646    0.1000
     60 H60         3.0303    0.3936   47.5141 H       1  ZINC001296589646    0.0700
     61 H61         3.3145   -0.3227   49.1293 H       1  ZINC001296589646    0.0900
     62 H62        -0.2095   -1.4300   48.4587 H       1  ZINC001296589646    0.1000
     63 H63         0.1597   -1.0493   46.7547 H       1  ZINC001296589646    0.0800
@<TRIPOS>BOND
     1     1     2    1
     2     1    32    1
     3     1    33    1
     4     1    34    1
     5     2     3    1
     6     2    35    1
     7     2    36    1
     8     3     4    1
     9     4    31    1
    10     4     5    1
    11     4    28    1
    12     5    16    1
    13     5     6    2
    14     6     7    1
    15     7     8    2
    16     8     9    1
    17     8    16    1
    18     9    15    1
    19     9    10    1
    20    10    11    1
    21    10    37    1
    22    10    38    1
    23    11    12    1
    24    11    39    1
    25    11    40    1
    26    12    13    1
    27    12    14    1
    28    12    15    1
    29    14    41    1
    30    14    42    1
    31    14    43    1
    32    15    44    1
    33    15    45    1
    34    16    17    1
    35    17    18    1
    36    17    46    1
    37    17    47    1
    38    18    19    1
    39    18    48    1
    40    18    49    1
    41    19    20    1
    42    19    21    1
    43    19    22    1
    44    21    50    1
    45    21    51    1
    46    21    52    1
    47    22    27   ar
    48    22    23   ar
    49    23    24   ar
    50    23    53    1
    51    24    25   ar
    52    24    54    1
    53    25    26   ar
    54    25    55    1
    55    26    27   ar
    56    26    56    1
    57    27    57    1
    58    28    29    1
    59    28    58    1
    60    28    59    1
    61    29    30    1
    62    29    60    1
    63    29    61    1
    64    30    31    1
    65    31    62    1
    66    31    63    1
@<TRIPOS>SUBSTRUCTURE
     1 ZINC001296589646        1 TEMP              0 ****  ****    0 ROOT


##########                                Name:    ZINC000000992968
##########                DOCK_Rotatable_Bonds:                   8
##########                         Heavy_Atoms:                  27
##########                    Molecular_Weight:             384.772
##########                DOCK_Rotatable_Bonds:                   8
##########                       Formal_Charge:           0.0199999
##########                     HBond_Acceptors:                   7
##########                        HBond_Donors:                   0
##########                         Heavy_Atoms:                  27
##########                          Grid_Score:          -31.257774
##########                     Grid_vdw_energy:          -29.542912
##########                      Grid_es_energy:           -1.714862
##########           Internal_energy_repulsive:            8.470883

@<TRIPOS>MOLECULE
ZINC000000992968
 40 42 1 0 0
SMALL
USER_CHARGES


@<TRIPOS>ATOM
      1 O1         -6.9157    4.7023   55.3306 O.2     1  ZINC000000992968   -0.4600
      2 C2         -7.5614    3.6923   55.5362 C.2     1  ZINC000000992968    0.5600
      3 O3         -8.0780    2.9990   54.5002 O.3     1  ZINC000000992968   -0.2900
      4 C4         -7.3505    2.9254   53.3571 C.ar    1  ZINC000000992968    0.1200
      5 C5         -6.0463    2.4444   53.3954 C.ar    1  ZINC000000992968   -0.1300
      6 C6         -5.3041    2.3682   52.2391 C.ar    1  ZINC000000992968   -0.0400
      7 C7         -5.8645    2.7755   51.0223 C.ar    1  ZINC000000992968   -0.1600
      8 C8         -5.0770    2.6958   49.7849 C.2     1  ZINC000000992968    0.4000
      9 O9         -5.3752    3.3831   48.8310 O.2     1  ZINC000000992968   -0.4200
     10 C10        -3.8986    1.7602   49.7005 C.3     1  ZINC000000992968    0.0200
     11 O11        -2.7339    2.3944   50.2917 O.3     1  ZINC000000992968   -0.3300
     12 C12        -1.7539    2.7789   49.4508 C.2     1  ZINC000000992968    0.5100
     13 O13        -1.1834    3.8369   49.6264 O.2     1  ZINC000000992968   -0.5000
     14 C14        -1.3735    1.9142   48.3160 C.ar    1  ZINC000000992968   -0.1300
     15 C15        -1.1747    0.5458   48.5127 C.ar    1  ZINC000000992968   -0.0500
     16 C16        -0.8200   -0.2563   47.4489 C.ar    1  ZINC000000992968   -0.1200
     17 C17        -0.6604    0.2924   46.1870 C.ar    1  ZINC000000992968    0.0000
     18 Cl18       -0.2132   -0.7241   44.8527 Cl      1  ZINC000000992968   -0.0500
     19 C19        -0.8566    1.6488   45.9853 C.ar    1  ZINC000000992968   -0.1200
     20 C20        -1.2167    2.4605   47.0401 C.ar    1  ZINC000000992968   -0.0400
     21 C21        -7.1783    3.2587   50.9890 C.ar    1  ZINC000000992968   -0.0600
     22 C22        -7.9137    3.3259   52.1503 C.ar    1  ZINC000000992968   -0.1200
     23 C23        -7.7733    3.2254   56.9080 C.2     1  ZINC000000992968   -0.0700
     24 C24        -8.4776    2.1144   57.2785 C.2     1  ZINC000000992968   -0.0900
     25 C25        -8.4227    2.0506   58.6791 C.2     1  ZINC000000992968   -0.2300
     26 C26        -7.6969    3.1115   59.0977 C.2     1  ZINC000000992968    0.0200
     27 O27        -7.3027    3.8135   58.0276 O.3     1  ZINC000000992968   -0.1500
     28 H28        -5.6149    2.1305   54.3345 H       1  ZINC000000992968    0.1400
     29 H29        -4.2911    1.9951   52.2701 H       1  ZINC000000992968    0.1500
     30 H30        -4.1251    0.8410   50.2406 H       1  ZINC000000992968    0.1100
     31 H31        -3.6941    1.5268   48.6557 H       1  ZINC000000992968    0.1100
     32 H32        -1.2982    0.1171   49.4963 H       1  ZINC000000992968    0.1500
     33 H33        -0.6660   -1.3145   47.5998 H       1  ZINC000000992968    0.1500
     34 H34        -0.7310    2.0705   44.9991 H       1  ZINC000000992968    0.1500
     35 H35        -1.3697    3.5177   46.8815 H       1  ZINC000000992968    0.1500
     36 H36        -7.6151    3.5744   50.0531 H       1  ZINC000000992968    0.1400
     37 H37        -8.9272    3.6981   52.1257 H       1  ZINC000000992968    0.1400
     38 H38        -8.9792    1.4200   56.6208 H       1  ZINC000000992968    0.1700
     39 H39        -8.8752    1.2959   59.3050 H       1  ZINC000000992968    0.1700
     40 H40        -7.4692    3.3512   60.1258 H       1  ZINC000000992968    0.2200
@<TRIPOS>BOND
     1     1     2    2
     2     2     3    1
     3     2    23    1
     4     3     4    1
     5     4    22   ar
     6     4     5   ar
     7     5     6   ar
     8     5    28    1
     9     6     7   ar
    10     6    29    1
    11     7     8    1
    12     7    21   ar
    13     8     9    2
    14     8    10    1
    15    10    11    1
    16    10    30    1
    17    10    31    1
    18    11    12    1
    19    12    13    2
    20    12    14    1
    21    14    20   ar
    22    14    15   ar
    23    15    16   ar
    24    15    32    1
    25    16    17   ar
    26    16    33    1
    27    17    18    1
    28    17    19   ar
    29    19    20   ar
    30    19    34    1
    31    20    35    1
    32    21    22   ar
    33    21    36    1
    34    22    37    1
    35    23    27    1
    36    23    24    2
    37    24    25    1
    38    24    38    1
    39    25    26    2
    40    25    39    1
    41    26    27    1
    42    26    40    1
@<TRIPOS>SUBSTRUCTURE
     1 ZINC000000992968        1 TEMP              0 ****  ****    0 ROOT


##########                                Name:    ZINC000771225867
##########                DOCK_Rotatable_Bonds:                   9
##########                         Heavy_Atoms:                  23
##########                    Molecular_Weight:             355.802
##########                DOCK_Rotatable_Bonds:                   9
##########                       Formal_Charge:        -3.12924e-07
##########                     HBond_Acceptors:                   9
##########                        HBond_Donors:                   3
##########                         Heavy_Atoms:                  23
##########                          Grid_Score:          -31.243513
##########                     Grid_vdw_energy:          -31.716896
##########                      Grid_es_energy:            0.473383
##########           Internal_energy_repulsive:            7.004180

@<TRIPOS>MOLECULE
ZINC000771225867
 37 38 1 0 0
SMALL
USER_CHARGES


@<TRIPOS>ATOM
      1 C1        -10.2174    1.7177   52.6410 C.3     1  ZINC000771225867    0.0400
      2 O2         -9.0289    1.4367   51.8988 O.3     1  ZINC000771225867   -0.3600
      3 C3         -8.0458    2.3604   51.9435 C.2     1  ZINC000771225867    0.5500
      4 O4         -8.1948    3.3766   52.5964 O.2     1  ZINC000771225867   -0.4900
      5 C5         -6.8417    2.1471   51.2309 C.2     1  ZINC000771225867   -0.3400
      6 C6         -6.2728    0.9320   50.9515 C.2     1  ZINC000771225867    0.2700
      7 Cl7        -6.9724   -0.5769   51.4487 Cl      1  ZINC000771225867    0.0400
      8 N8         -5.1546    1.0117   50.2755 N.2     1  ZINC000771225867   -0.5500
      9 C9         -4.7314    2.2024   49.9599 C.2     1  ZINC000771225867    0.3400
     10 N10        -3.5780    2.4633   49.2527 N.pl3   1  ZINC000771225867   -0.6700
     11 C11        -2.3568    1.7060   49.5378 C.3     1  ZINC000771225867    0.1700
     12 C12        -1.7282    1.2604   48.2426 C.ar    1  ZINC000771225867   -0.0800
     13 C13        -1.3105   -0.0489   48.0923 C.ar    1  ZINC000771225867   -0.1300
     14 C14        -0.7334   -0.4609   46.9051 C.ar    1  ZINC000771225867   -0.0800
     15 C15        -0.5728    0.4351   45.8663 C.ar    1  ZINC000771225867   -0.2000
     16 C16        -0.9912    1.7498   46.0146 C.ar    1  ZINC000771225867    0.1300
     17 O17        -0.8348    2.6332   44.9939 O.3     1  ZINC000771225867   -0.2900
     18 C18         0.5042    2.9314   44.5936 C.3     1  ZINC000771225867    0.0400
     19 C19         0.8421    4.3469   44.9852 C.2     1  ZINC000771225867    0.5200
     20 N20         0.9344    4.6821   46.2874 N.am    1  ZINC000771225867   -0.8500
     21 O21         1.0310    5.1844   44.1285 O.2     1  ZINC000771225867   -0.5200
     22 C22        -1.5750    2.1592   47.2045 C.ar    1  ZINC000771225867   -0.1200
     23 S23        -5.8098    3.3957   50.5378 S.3     1  ZINC000771225867    0.2200
     24 H24        -9.9688    1.8301   53.6963 H       1  ZINC000771225867    0.0600
     25 H25       -10.6658    2.6407   52.2730 H       1  ZINC000771225867    0.0600
     26 H26       -10.9242    0.8969   52.5196 H       1  ZINC000771225867    0.1000
     27 H27        -3.5747    3.1484   48.5660 H       1  ZINC000771225867    0.4200
     28 H28        -1.6561    2.3384   50.0830 H       1  ZINC000771225867    0.0900
     29 H29        -2.6034    0.8326   50.1414 H       1  ZINC000771225867    0.0900
     30 H30        -1.4348   -0.7509   48.9034 H       1  ZINC000771225867    0.1300
     31 H31        -0.4076   -1.4842   46.7902 H       1  ZINC000771225867    0.1300
     32 H32        -0.1217    0.1129   44.9394 H       1  ZINC000771225867    0.1300
     33 H33         1.1922    2.2442   45.0858 H       1  ZINC000771225867    0.1000
     34 H34         0.5930    2.8225   43.5127 H       1  ZINC000771225867    0.1000
     35 H35         1.1530    5.5929   46.5393 H       1  ZINC000771225867    0.4000
     36 H36         0.7822    4.0126   46.9725 H       1  ZINC000771225867    0.4100
     37 H37        -1.9015    3.1819   47.3225 H       1  ZINC000771225867    0.1400
@<TRIPOS>BOND
     1     1     2    1
     2     1    24    1
     3     1    25    1
     4     1    26    1
     5     2     3    1
     6     3     4    2
     7     3     5    1
     8     5    23    1
     9     5     6    2
    10     6     7    1
    11     6     8    1
    12     8     9    2
    13     9    10    1
    14     9    23    1
    15    10    11    1
    16    10    27    1
    17    11    12    1
    18    11    28    1
    19    11    29    1
    20    12    22   ar
    21    12    13   ar
    22    13    14   ar
    23    13    30    1
    24    14    15   ar
    25    14    31    1
    26    15    16   ar
    27    15    32    1
    28    16    17    1
    29    16    22   ar
    30    17    18    1
    31    18    19    1
    32    18    33    1
    33    18    34    1
    34    19    20   am
    35    19    21    2
    36    20    35    1
    37    20    36    1
    38    22    37    1
@<TRIPOS>SUBSTRUCTURE
     1 ZINC000771225867        1 TEMP              0 ****  ****    0 ROOT


##########                                Name:    ZINC000572148596
##########                DOCK_Rotatable_Bonds:                   4
##########                         Heavy_Atoms:                  26
##########                    Molecular_Weight:             371.463
##########                DOCK_Rotatable_Bonds:                   4
##########                       Formal_Charge:          -0.0199999
##########                     HBond_Acceptors:                   8
##########                        HBond_Donors:                   0
##########                         Heavy_Atoms:                  26
##########                          Grid_Score:          -31.237492
##########                     Grid_vdw_energy:          -30.804356
##########                      Grid_es_energy:           -0.433137
##########           Internal_energy_repulsive:            5.647608

@<TRIPOS>MOLECULE
ZINC000572148596
 47 50 1 0 0
SMALL
USER_CHARGES


@<TRIPOS>ATOM
      1 C1         -5.7425    4.2282   56.2801 C.3     1  ZINC000572148596   -0.1400
      2 C2         -6.9514    3.7034   55.5028 C.3     1  ZINC000572148596    0.0800
      3 H3         -7.6121    4.5340   55.2545 H       1  ZINC000572148596    0.1200
      4 C4         -6.4828    3.0378   54.2346 C.2     1  ZINC000572148596    0.1800
      5 N5         -7.1413    2.1557   53.5420 N.2     1  ZINC000572148596   -0.3500
      6 O6         -6.4984    1.8097   52.5736 O.3     1  ZINC000572148596    0.0900
      7 C7         -5.3248    2.4610   52.5536 C.2     1  ZINC000572148596    0.2300
      8 C8         -4.2580    2.3253   51.5423 C.ar    1  ZINC000572148596   -0.1200
      9 C9         -3.0698    3.0611   51.6588 C.ar    1  ZINC000572148596   -0.0100
     10 C10        -2.1070    2.9038   50.6975 C.ar    1  ZINC000572148596   -0.1900
     11 C11        -2.3335    2.0251   49.6407 C.ar    1  ZINC000572148596    0.3400
     12 N12        -1.3609    1.8631   48.6661 N.3     1  ZINC000572148596   -0.4700
     13 C13        -1.9627    1.8018   47.3262 C.3     1  ZINC000572148596    0.0300
     14 C14        -0.8523    1.6830   46.2789 C.3     1  ZINC000572148596    0.0900
     15 H15        -1.2957    1.5800   45.2884 H       1  ZINC000572148596    0.1100
     16 C16         0.0237    2.9368   46.3185 C.3     1  ZINC000572148596   -0.1800
     17 O17        -0.0535    0.5322   46.5667 O.3     1  ZINC000572148596   -0.3700
     18 C18         0.5484    0.5589   47.8637 C.3     1  ZINC000572148596    0.0800
     19 H19         1.2136    1.4191   47.9385 H       1  ZINC000572148596    0.0700
     20 C20         1.3490   -0.7265   48.0819 C.3     1  ZINC000572148596   -0.1400
     21 C21        -0.5478    0.6664   48.9271 C.3     1  ZINC000572148596    0.0300
     22 N22        -3.4659    1.3412   49.5542 N.ar    1  ZINC000572148596   -0.5200
     23 C23        -4.4148    1.4586   50.4600 C.ar    1  ZINC000572148596    0.1900
     24 N24        -5.3132    3.2524   53.6126 N.2     1  ZINC000572148596   -0.4700
     25 C25        -7.6973    2.7039   56.3488 C.2     1  ZINC000572148596    0.0400
     26 N26        -7.1601    1.9508   57.2482 N.2     1  ZINC000572148596   -0.4500
     27 C27        -7.9587    1.1298   57.8999 C.2     1  ZINC000572148596    0.0400
     28 C28        -9.2412    1.1940   57.5295 C.2     1  ZINC000572148596   -0.2500
     29 S29        -9.3791    2.4090   56.2608 S.3     1  ZINC000572148596    0.1400
     30 H30        -5.0818    3.3976   56.5285 H       1  ZINC000572148596    0.0800
     31 H31        -5.2031    4.9511   55.6682 H       1  ZINC000572148596    0.0700
     32 H32        -6.0814    4.7097   57.1974 H       1  ZINC000572148596    0.0800
     33 H33        -2.9175    3.7367   52.4875 H       1  ZINC000572148596    0.1500
     34 H34        -1.1810    3.4562   50.7581 H       1  ZINC000572148596    0.1500
     35 H35        -2.6188    0.9339   47.2611 H       1  ZINC000572148596    0.0600
     36 H36        -2.5389    2.7090   47.1443 H       1  ZINC000572148596    0.1000
     37 H37         0.4680    3.0385   47.3086 H       1  ZINC000572148596    0.0700
     38 H38         0.8140    2.8516   45.5727 H       1  ZINC000572148596    0.0600
     39 H39        -0.5869    3.8136   46.1024 H       1  ZINC000572148596    0.0700
     40 H40         2.1268   -0.8036   47.3223 H       1  ZINC000572148596    0.0700
     41 H41         1.8075   -0.7055   49.0706 H       1  ZINC000572148596    0.0700
     42 H42         0.6830   -1.5863   48.0085 H       1  ZINC000572148596    0.0600
     43 H43        -0.0913    0.7446   49.9137 H       1  ZINC000572148596    0.1000
     44 H44        -1.1812   -0.2198   48.8876 H       1  ZINC000572148596    0.0600
     45 H45        -5.3254    0.8866   50.3593 H       1  ZINC000572148596    0.1700
     46 H46        -7.6059    0.4599   58.6699 H       1  ZINC000572148596    0.1800
     47 H47       -10.0507    0.6075   57.9382 H       1  ZINC000572148596    0.1800
@<TRIPOS>BOND
     1     1     2    1
     2     1    30    1
     3     1    31    1
     4     1    32    1
     5     2     3    1
     6     2     4    1
     7     2    25    1
     8     4    24    1
     9     4     5    2
    10     5     6    1
    11     6     7    1
    12     7     8    1
    13     7    24    2
    14     8    23   ar
    15     8     9   ar
    16     9    10   ar
    17     9    33    1
    18    10    11   ar
    19    10    34    1
    20    11    12    1
    21    11    22   ar
    22    12    21    1
    23    12    13    1
    24    13    14    1
    25    13    35    1
    26    13    36    1
    27    14    15    1
    28    14    16    1
    29    14    17    1
    30    16    37    1
    31    16    38    1
    32    16    39    1
    33    17    18    1
    34    18    19    1
    35    18    20    1
    36    18    21    1
    37    20    40    1
    38    20    41    1
    39    20    42    1
    40    21    43    1
    41    21    44    1
    42    22    23   ar
    43    23    45    1
    44    25    29    1
    45    25    26    2
    46    26    27    1
    47    27    28    2
    48    27    46    1
    49    28    29    1
    50    28    47    1
@<TRIPOS>SUBSTRUCTURE
     1 ZINC000572148596        1 TEMP              0 ****  ****    0 ROOT


##########                                Name:    ZINC001082278299
##########                DOCK_Rotatable_Bonds:                   9
##########                         Heavy_Atoms:                  25
##########                    Molecular_Weight:              346.47
##########                DOCK_Rotatable_Bonds:                   9
##########                       Formal_Charge:           0.0200001
##########                     HBond_Acceptors:                   5
##########                        HBond_Donors:                   1
##########                         Heavy_Atoms:                  25
##########                          Grid_Score:          -31.233208
##########                     Grid_vdw_energy:          -30.859804
##########                      Grid_es_energy:           -0.373404
##########           Internal_energy_repulsive:           86.967896

@<TRIPOS>MOLECULE
ZINC001082278299
 55 57 1 0 0
SMALL
USER_CHARGES


@<TRIPOS>ATOM
      1 C1         -8.6922   -0.5880   51.8596 C.3     1  ZINC001082278299   -0.1300
      2 C2         -9.1775    0.7241   52.4197 C.2     1  ZINC001082278299    0.0000
      3 C3         -8.3438    1.7560   52.5138 C.2     1  ZINC001082278299   -0.2300
      4 C4         -6.9479    1.6167   52.0712 C.2     1  ZINC001082278299    0.5400
      5 O5         -6.2881    0.6610   52.4321 O.2     1  ZINC001082278299   -0.5300
      6 N6         -6.4001    2.5482   51.2656 N.am    1  ZINC001082278299   -0.7400
      7 C7         -5.0094    2.4102   50.8263 C.3     1  ZINC001082278299    0.1300
      8 C8         -4.0835    3.0697   51.8503 C.3     1  ZINC001082278299    0.1400
      9 H9         -4.1239    2.5170   52.7889 H       1  ZINC001082278299    0.0800
     10 C10        -4.5271    4.5167   52.0869 C.3     1  ZINC001082278299   -0.1300
     11 C11        -3.5179    5.2122   53.0034 C.3     1  ZINC001082278299   -0.1200
     12 C12        -2.1440    5.2323   52.3298 C.3     1  ZINC001082278299   -0.1400
     13 C13        -1.6732    3.7934   52.0960 C.3     1  ZINC001082278299    0.1100
     14 N14        -2.7059    3.0720   51.3392 N.am    1  ZINC001082278299   -0.6100
     15 C15        -2.3963    2.4294   50.1956 C.2     1  ZINC001082278299    0.5100
     16 O16        -3.2576    1.8376   49.5803 O.2     1  ZINC001082278299   -0.5100
     17 C17        -0.9797    2.4462   49.6817 C.3     1  ZINC001082278299   -0.1100
     18 C18        -0.9097    1.6953   48.3770 C.2     1  ZINC001082278299   -0.0900
     19 C19        -0.7738    0.4029   48.4063 C.2     1  ZINC001082278299   -0.1800
     20 C20        -0.6851   -0.4359   47.1631 C.3     1  ZINC001082278299    0.0900
     21 O21        -1.1265    0.3153   46.0304 O.3     1  ZINC001082278299   -0.3800
     22 C22        -0.5014    1.6011   45.9325 C.3     1  ZINC001082278299    0.0600
     23 C23        -1.0059    2.4690   47.0911 C.3     1  ZINC001082278299   -0.1100
     24 C24       -10.6075    0.8671   52.8732 C.3     1  ZINC001082278299   -0.1200
     25 C25       -11.3830   -0.4157   53.1796 C.3     1  ZINC001082278299   -0.1900
     26 C26       -10.9296    0.4955   54.3221 C.3     1  ZINC001082278299   -0.1500
     27 H27        -8.3061   -1.2079   52.6689 H       1  ZINC001082278299    0.0800
     28 H28        -9.5194   -1.1026   51.3708 H       1  ZINC001082278299    0.0800
     29 H29        -7.9000   -0.4027   51.1342 H       1  ZINC001082278299    0.0700
     30 H30        -8.6917    2.6964   52.9152 H       1  ZINC001082278299    0.1300
     31 H31        -6.9267    3.3098   50.9769 H       1  ZINC001082278299    0.3900
     32 H32        -4.7593    1.3529   50.7384 H       1  ZINC001082278299    0.0900
     33 H33        -4.8843    2.8950   49.8582 H       1  ZINC001082278299    0.0800
     34 H34        -4.5756    5.0429   51.1336 H       1  ZINC001082278299    0.0700
     35 H35        -5.5105    4.5236   52.5571 H       1  ZINC001082278299    0.0800
     36 H36        -3.8443    6.2348   53.1932 H       1  ZINC001082278299    0.0700
     37 H37        -3.4516    4.6712   53.9473 H       1  ZINC001082278299    0.0700
     38 H38        -2.2148    5.7518   51.3741 H       1  ZINC001082278299    0.0700
     39 H39        -1.4310    5.7485   52.9728 H       1  ZINC001082278299    0.0800
     40 H40        -0.7425    3.8010   51.5285 H       1  ZINC001082278299    0.0900
     41 H41        -1.5146    3.3004   53.0550 H       1  ZINC001082278299    0.0700
     42 H42        -0.6623    3.4772   49.5251 H       1  ZINC001082278299    0.1000
     43 H43        -0.3232    1.9707   50.4103 H       1  ZINC001082278299    0.1000
     44 H44        -0.7221   -0.0894   49.3662 H       1  ZINC001082278299    0.1100
     45 H45         0.3484   -0.7469   47.0100 H       1  ZINC001082278299    0.0600
     46 H46        -1.3130   -1.3194   47.2777 H       1  ZINC001082278299    0.1000
     47 H47         0.5809    1.4891   45.9969 H       1  ZINC001082278299    0.0600
     48 H48        -0.7670    2.0671   44.9837 H       1  ZINC001082278299    0.1000
     49 H49        -2.0422    2.7527   46.9076 H       1  ZINC001082278299    0.0800
     50 H50        -0.3921    3.3666   47.1662 H       1  ZINC001082278299    0.0800
     51 H51       -11.1601    1.6963   52.4315 H       1  ZINC001082278299    0.1300
     52 H52       -12.4461   -0.4307   52.9394 H       1  ZINC001082278299    0.1000
     53 H53       -10.8589   -1.3631   53.0532 H       1  ZINC001082278299    0.1000
     54 H54       -10.1072    0.1476   54.9472 H       1  ZINC001082278299    0.0900
     55 H55       -11.6944    1.0799   54.8334 H       1  ZINC001082278299    0.1000
@<TRIPOS>BOND
     1     1     2    1
     2     1    27    1
     3     1    28    1
     4     1    29    1
     5     2     3    2
     6     2    24    1
     7     3     4    1
     8     3    30    1
     9     4     5    2
    10     4     6   am
    11     6     7    1
    12     6    31    1
    13     7     8    1
    14     7    32    1
    15     7    33    1
    16     8     9    1
    17     8    14    1
    18     8    10    1
    19    10    11    1
    20    10    34    1
    21    10    35    1
    22    11    12    1
    23    11    36    1
    24    11    37    1
    25    12    13    1
    26    12    38    1
    27    12    39    1
    28    13    14    1
    29    13    40    1
    30    13    41    1
    31    14    15   am
    32    15    16    2
    33    15    17    1
    34    17    18    1
    35    17    42    1
    36    17    43    1
    37    18    23    1
    38    18    19    2
    39    19    20    1
    40    19    44    1
    41    20    21    1
    42    20    45    1
    43    20    46    1
    44    21    22    1
    45    22    23    1
    46    22    47    1
    47    22    48    1
    48    23    49    1
    49    23    50    1
    50    24    26    1
    51    24    25    1
    52    24    51    1
    53    25    26    1
    54    25    52    1
    55    25    53    1
    56    26    54    1
    57    26    55    1
@<TRIPOS>SUBSTRUCTURE
     1 ZINC001082278299        1 TEMP              0 ****  ****    0 ROOT


##########                                Name:    ZINC001490207225
##########                DOCK_Rotatable_Bonds:                   7
##########                         Heavy_Atoms:                  24
##########                    Molecular_Weight:             334.378
##########                DOCK_Rotatable_Bonds:                   7
##########                       Formal_Charge:           -0.010001
##########                     HBond_Acceptors:                   9
##########                        HBond_Donors:                   3
##########                         Heavy_Atoms:                  24
##########                          Grid_Score:          -31.229158
##########                     Grid_vdw_energy:          -30.475248
##########                      Grid_es_energy:           -0.753911
##########           Internal_energy_repulsive:            5.765712

@<TRIPOS>MOLECULE
ZINC001490207225
 46 48 1 0 0
SMALL
USER_CHARGES


@<TRIPOS>ATOM
      1 C1         -6.8192    1.1867   51.7812 C.3     1  ZINC001490207225    0.0900
      2 N2         -5.8141    1.8220   50.9253 N.pl3   1  ZINC001490207225   -0.3600
      3 C3         -4.4984    1.8960   51.1825 C.2     1  ZINC001490207225    0.1300
      4 C4         -3.9092    2.5698   50.1316 C.2     1  ZINC001490207225   -0.3000
      5 C5         -2.4760    2.8835   49.9867 C.2     1  ZINC001490207225    0.6200
      6 O6         -1.9186    3.5773   50.8153 O.2     1  ZINC001490207225   -0.5400
      7 N7         -1.7835    2.4014   48.9357 N.am    1  ZINC001490207225   -0.6200
      8 C8         -2.3078    1.5584   47.8488 C.3     1  ZINC001490207225    0.1100
      9 C9         -1.1458    0.6576   47.3988 C.3     1  ZINC001490207225   -0.1100
     10 H10        -1.2469   -0.3602   47.7758 H       1  ZINC001490207225    0.1000
     11 C11        -1.0428    0.6984   45.8596 C.3     1  ZINC001490207225    0.1000
     12 N12         0.4065    0.8268   45.5829 N.am    1  ZINC001490207225   -0.6200
     13 C13         1.1193    0.2238   44.6109 C.2     1  ZINC001490207225    0.5300
     14 O14         0.5698   -0.5271   43.8329 O.2     1  ZINC001490207225   -0.5300
     15 C15         2.5990    0.4826   44.4905 C.3     1  ZINC001490207225    0.1200
     16 N16         3.0035    0.3610   43.0877 N.am    1  ZINC001490207225   -0.7400
     17 C17         4.2494   -0.0501   42.7789 C.2     1  ZINC001490207225    0.7100
     18 N18         4.6211   -0.1635   41.4884 N.am    1  ZINC001490207225   -0.8600
     19 O19         5.0380   -0.3186   43.6645 O.2     1  ZINC001490207225   -0.5900
     20 C20         0.8947    1.7683   46.6167 C.3     1  ZINC001490207225    0.1100
     21 C21         0.1369    1.3524   47.9251 C.3     1  ZINC001490207225   -0.0800
     22 C22         0.9898    0.4535   48.8226 C.3     1  ZINC001490207225   -0.1300
     23 C23        -0.3568    2.6204   48.6469 C.3     1  ZINC001490207225    0.1000
     24 C24        -4.9368    2.9022   49.2207 C.2     1  ZINC001490207225    0.0700
     25 N25        -6.0625    2.4487   49.6990 N.2     1  ZINC001490207225   -0.2900
     26 H26        -6.9188    0.1366   51.5066 H       1  ZINC001490207225    0.0800
     27 H27        -6.5088    1.2619   52.8234 H       1  ZINC001490207225    0.0900
     28 H28        -7.7776    1.6891   51.6503 H       1  ZINC001490207225    0.1000
     29 H29        -3.9938    1.5013   52.0520 H       1  ZINC001490207225    0.1900
     30 H30        -3.1341    0.9485   48.2139 H       1  ZINC001490207225    0.0900
     31 H31        -2.6406    2.1820   47.0191 H       1  ZINC001490207225    0.0800
     32 H32        -1.4315   -0.2242   45.4284 H       1  ZINC001490207225    0.0900
     33 H33        -1.5825    1.5596   45.4656 H       1  ZINC001490207225    0.0900
     34 H34         2.8222    1.4882   44.8471 H       1  ZINC001490207225    0.1000
     35 H35         3.1451   -0.2453   45.0906 H       1  ZINC001490207225    0.1000
     36 H36         2.3748    0.5763   42.3812 H       1  ZINC001490207225    0.4100
     37 H37         5.5174   -0.4604   41.2662 H       1  ZINC001490207225    0.4000
     38 H38         3.9924    0.0518   40.7819 H       1  ZINC001490207225    0.4200
     39 H39         1.9695    1.6540   46.7574 H       1  ZINC001490207225    0.0900
     40 H40         0.6542    2.7947   46.3396 H       1  ZINC001490207225    0.0800
     41 H41         1.8892    0.9901   49.1247 H       1  ZINC001490207225    0.0700
     42 H42         0.4176    0.1760   49.7079 H       1  ZINC001490207225    0.0600
     43 H43         1.2702   -0.4460   48.2746 H       1  ZINC001490207225    0.0600
     44 H44        -0.2510    3.4873   47.9947 H       1  ZINC001490207225    0.0800
     45 H45         0.2093    2.7720   49.5660 H       1  ZINC001490207225    0.0900
     46 H46        -4.8116    3.4347   48.2894 H       1  ZINC001490207225    0.2000
@<TRIPOS>BOND
     1     1     2    1
     2     1    26    1
     3     1    27    1
     4     1    28    1
     5     2    25    1
     6     2     3    1
     7     3     4    2
     8     3    29    1
     9     4     5    1
    10     4    24    1
    11     5     6    2
    12     5     7   am
    13     7    23    1
    14     7     8    1
    15     8     9    1
    16     8    30    1
    17     8    31    1
    18     9    10    1
    19     9    21    1
    20     9    11    1
    21    11    12    1
    22    11    32    1
    23    11    33    1
    24    12    13   am
    25    12    20    1
    26    13    14    2
    27    13    15    1
    28    15    16    1
    29    15    34    1
    30    15    35    1
    31    16    17   am
    32    16    36    1
    33    17    18   am
    34    17    19    2
    35    18    37    1
    36    18    38    1
    37    20    21    1
    38    20    39    1
    39    20    40    1
    40    21    22    1
    41    21    23    1
    42    22    41    1
    43    22    42    1
    44    22    43    1
    45    23    44    1
    46    23    45    1
    47    24    25    2
    48    24    46    1
@<TRIPOS>SUBSTRUCTURE
     1 ZINC001490207225        1 TEMP              0 ****  ****    0 ROOT


##########                                Name:    ZINC000182044395
##########                DOCK_Rotatable_Bonds:                   8
##########                         Heavy_Atoms:                  28
##########                    Molecular_Weight:             398.889
##########                DOCK_Rotatable_Bonds:                   8
##########                       Formal_Charge:          -0.0399999
##########                     HBond_Acceptors:                   6
##########                        HBond_Donors:                   2
##########                         Heavy_Atoms:                  28
##########                          Grid_Score:          -31.227848
##########                     Grid_vdw_energy:          -27.830536
##########                      Grid_es_energy:           -3.397312
##########           Internal_energy_repulsive:           15.584145

@<TRIPOS>MOLECULE
ZINC000182044395
 51 53 1 0 0
SMALL
USER_CHARGES


@<TRIPOS>ATOM
      1 C1          0.0731   -0.8298   47.2186 C.3     1  ZINC000182044395   -0.1800
      2 C2         -0.3843   -1.0597   48.6605 C.3     1  ZINC000182044395    0.0800
      3 N3         -0.6471    0.2312   49.3013 N.pl3   1  ZINC000182044395   -0.4800
      4 C4         -1.9149    0.6518   49.3996 C.2     1  ZINC000182044395    0.2500
      5 C5         -2.2471    1.8543   49.9884 C.2     1  ZINC000182044395   -0.3500
      6 C6         -3.6525    2.2805   50.0772 C.2     1  ZINC000182044395    0.5900
      7 O7         -4.2525    2.6112   49.0720 O.2     1  ZINC000182044395   -0.5600
      8 N8         -4.2752    2.3046   51.2723 N.am    1  ZINC000182044395   -0.7200
      9 C9         -5.6746    2.7289   51.3606 C.3     1  ZINC000182044395    0.1100
     10 H10        -5.8772    3.4753   50.5926 H       1  ZINC000182044395    0.0900
     11 C11        -6.5884    1.5199   51.1505 C.3     1  ZINC000182044395   -0.1600
     12 C12        -5.9379    3.3334   52.7413 C.3     1  ZINC000182044395    0.1100
     13 H13        -6.9840    3.6309   52.8141 H       1  ZINC000182044395    0.1100
     14 O14        -5.6473    2.3632   53.7494 O.3     1  ZINC000182044395   -0.5500
     15 C15        -5.0441    4.5591   52.9403 C.3     1  ZINC000182044395   -0.1100
     16 C16        -5.3455    5.1891   54.2757 C.ar    1  ZINC000182044395   -0.0800
     17 C17        -4.6516    4.7873   55.4018 C.ar    1  ZINC000182044395   -0.1000
     18 C18        -4.9283    5.3649   56.6269 C.ar    1  ZINC000182044395   -0.1200
     19 C19        -5.8982    6.3448   56.7257 C.ar    1  ZINC000182044395   -0.1200
     20 C20        -6.5955    6.7432   55.6004 C.ar    1  ZINC000182044395   -0.1200
     21 C21        -6.3160    6.1684   54.3746 C.ar    1  ZINC000182044395   -0.1200
     22 C22        -1.1721    2.7065   50.5206 C.2     1  ZINC000182044395    0.4400
     23 O23        -1.4133    3.7797   51.0449 O.2     1  ZINC000182044395   -0.4900
     24 C24         0.2092    2.2043   50.3974 C.ar    1  ZINC000182044395   -0.1800
     25 C25         1.2905    2.9420   50.8783 C.ar    1  ZINC000182044395   -0.0200
     26 C26         2.5689    2.4449   50.7405 C.ar    1  ZINC000182044395   -0.0700
     27 Cl27        3.9203    3.3575   51.3361 Cl      1  ZINC000182044395   -0.0500
     28 C28         2.7801    1.2169   50.1277 C.ar    1  ZINC000182044395   -0.0500
     29 C29         1.7205    0.4781   49.6489 C.ar    1  ZINC000182044395   -0.1600
     30 C30         0.4209    0.9613   49.7770 C.ar    1  ZINC000182044395    0.1900
     31 H31         0.9841   -0.2313   47.2175 H       1  ZINC000182044395    0.0700
     32 H32         0.2686   -1.7903   46.7419 H       1  ZINC000182044395    0.0800
     33 H33        -0.7078   -0.3038   46.6694 H       1  ZINC000182044395    0.0700
     34 H34         0.3966   -1.5858   49.2098 H       1  ZINC000182044395    0.1000
     35 H35        -1.2953   -1.6581   48.6616 H       1  ZINC000182044395    0.1100
     36 H36        -2.7037    0.0285   49.0050 H       1  ZINC000182044395    0.1800
     37 H37        -3.7968    2.0408   52.0738 H       1  ZINC000182044395    0.4100
     38 H38        -6.4008    1.0893   50.1670 H       1  ZINC000182044395    0.0600
     39 H39        -6.3859    0.7735   51.9186 H       1  ZINC000182044395    0.0600
     40 H40        -7.6296    1.8356   51.2164 H       1  ZINC000182044395    0.0600
     41 H41        -4.7024    2.2155   53.8924 H       1  ZINC000182044395    0.3700
     42 H42        -5.2355    5.2811   52.1465 H       1  ZINC000182044395    0.0800
     43 H43        -3.9979    4.2546   52.9100 H       1  ZINC000182044395    0.0800
     44 H44        -3.8935    4.0220   55.3246 H       1  ZINC000182044395    0.1200
     45 H45        -4.3865    5.0507   57.5067 H       1  ZINC000182044395    0.1200
     46 H46        -6.1145    6.7961   57.6828 H       1  ZINC000182044395    0.1200
     47 H47        -7.3564    7.5057   55.6784 H       1  ZINC000182044395    0.1200
     48 H48        -6.8583    6.4821   53.4949 H       1  ZINC000182044395    0.1200
     49 H49         1.1274    3.8969   51.3557 H       1  ZINC000182044395    0.1500
     50 H50         3.7858    0.8367   50.0257 H       1  ZINC000182044395    0.1500
     51 H51         1.8977   -0.4757   49.1745 H       1  ZINC000182044395    0.1500
@<TRIPOS>BOND
     1     1     2    1
     2     1    31    1
     3     1    32    1
     4     1    33    1
     5     2     3    1
     6     2    34    1
     7     2    35    1
     8     3    30    1
     9     3     4    1
    10     4     5    2
    11     4    36    1
    12     5     6    1
    13     5    22    1
    14     6     7    2
    15     6     8   am
    16     8     9    1
    17     8    37    1
    18     9    10    1
    19     9    11    1
    20     9    12    1
    21    11    38    1
    22    11    39    1
    23    11    40    1
    24    12    13    1
    25    12    14    1
    26    12    15    1
    27    14    41    1
    28    15    16    1
    29    15    42    1
    30    15    43    1
    31    16    21   ar
    32    16    17   ar
    33    17    18   ar
    34    17    44    1
    35    18    19   ar
    36    18    45    1
    37    19    20   ar
    38    19    46    1
    39    20    21   ar
    40    20    47    1
    41    21    48    1
    42    22    23    2
    43    22    24    1
    44    24    30   ar
    45    24    25   ar
    46    25    26   ar
    47    25    49    1
    48    26    27    1
    49    26    28   ar
    50    28    29   ar
    51    28    50    1
    52    29    30   ar
    53    29    51    1
@<TRIPOS>SUBSTRUCTURE
     1 ZINC000182044395        1 TEMP              0 ****  ****    0 ROOT


##########                                Name:    ZINC000807524472
##########                DOCK_Rotatable_Bonds:                   9
##########                         Heavy_Atoms:                  28
##########                    Molecular_Weight:             410.534
##########                DOCK_Rotatable_Bonds:                   9
##########                       Formal_Charge:           0.0200006
##########                     HBond_Acceptors:                   8
##########                        HBond_Donors:                   0
##########                         Heavy_Atoms:                  28
##########                          Grid_Score:          -31.224127
##########                     Grid_vdw_energy:          -30.587959
##########                      Grid_es_energy:           -0.636167
##########           Internal_energy_repulsive:           15.653591

@<TRIPOS>MOLECULE
ZINC000807524472
 58 60 1 0 0
SMALL
USER_CHARGES


@<TRIPOS>ATOM
      1 C1         -9.5833   -0.2092   52.3499 C.3     1  ZINC000807524472   -0.1500
      2 C2        -10.1285    1.2204   52.3573 C.3     1  ZINC000807524472    0.0600
      3 O3         -9.8484    1.8304   53.6188 O.3     1  ZINC000807524472   -0.3800
      4 C4        -10.4995    1.2028   54.7253 C.3     1  ZINC000807524472    0.0600
      5 C5        -10.3944    2.1040   55.9571 C.3     1  ZINC000807524472    0.0700
      6 O6        -11.0139    1.4452   57.0931 O.3     1  ZINC000807524472   -0.3500
      7 C7        -10.4089    0.3359   57.5619 C.2     1  ZINC000807524472    0.5000
      8 O8         -9.2585    0.0950   57.2534 O.2     1  ZINC000807524472   -0.4600
      9 C9        -11.1420   -0.5842   58.4481 C.ar    1  ZINC000807524472   -0.1200
     10 C10       -12.1941   -1.3553   57.9460 C.ar    1  ZINC000807524472    0.0400
     11 C11       -12.8753   -2.2144   58.7802 C.ar    1  ZINC000807524472   -0.7000
     12 S12       -14.2008   -3.1856   58.1443 S.o2    1  ZINC000807524472    2.6900
     13 O13       -13.6348   -4.0438   57.1633 O.2     1  ZINC000807524472   -0.9500
     14 O14       -14.9245   -3.6630   59.2702 O.2     1  ZINC000807524472   -0.9500
     15 N15       -15.2176   -2.1582   57.3363 N.am    1  ZINC000807524472   -0.9900
     16 C16       -15.4947   -2.3506   55.9063 C.3     1  ZINC000807524472    0.1200
     17 C17       -17.0117   -2.4140   55.7021 C.3     1  ZINC000807524472   -0.1400
     18 C18       -17.6562   -1.1635   56.3046 C.3     1  ZINC000807524472   -0.1200
     19 C19       -17.3727   -1.1153   57.8077 C.3     1  ZINC000807524472   -0.1400
     20 C20       -15.8646   -1.0406   58.0372 C.3     1  ZINC000807524472    0.1200
     21 C21       -12.5235   -2.3191   60.1165 C.ar    1  ZINC000807524472    0.0200
     22 C22       -11.4875   -1.5646   60.6279 C.ar    1  ZINC000807524472   -0.1800
     23 C23       -10.7846   -0.6968   59.8016 C.ar    1  ZINC000807524472    0.2000
     24 N24        -9.7416    0.0632   60.3135 N.3     1  ZINC000807524472   -0.4800
     25 C25       -10.1986    0.8915   61.4585 C.3     1  ZINC000807524472    0.0400
     26 C26        -8.8810    1.2281   62.2010 C.3     1  ZINC000807524472   -0.1200
     27 C27        -8.0633   -0.0766   62.0625 C.3     1  ZINC000807524472   -0.1300
     28 C28        -8.6667   -0.8023   60.8456 C.3     1  ZINC000807524472    0.0400
     29 H29       -10.0589   -0.7836   53.1448 H       1  ZINC000807524472    0.0600
     30 H30        -9.7969   -0.6744   51.3876 H       1  ZINC000807524472    0.0700
     31 H31        -8.5056   -0.1879   52.5119 H       1  ZINC000807524472    0.0700
     32 H32        -9.6528    1.7948   51.5624 H       1  ZINC000807524472    0.0500
     33 H33       -11.2062    1.1991   52.1953 H       1  ZINC000807524472    0.0500
     34 H34       -11.5497    1.0389   54.4835 H       1  ZINC000807524472    0.0600
     35 H35       -10.0209    0.2458   54.9333 H       1  ZINC000807524472    0.0700
     36 H36        -9.3445    2.2972   56.1774 H       1  ZINC000807524472    0.0900
     37 H37       -10.9043    3.0474   55.7618 H       1  ZINC000807524472    0.0800
     38 H38       -12.4728   -1.2774   56.9056 H       1  ZINC000807524472    0.1600
     39 H39       -15.0843   -1.5152   55.3390 H       1  ZINC000807524472    0.0800
     40 H40       -15.0412   -3.2823   55.5683 H       1  ZINC000807524472    0.0900
     41 H41       -17.2336   -2.4600   54.6360 H       1  ZINC000807524472    0.0800
     42 H42       -17.4083   -3.3014   56.1954 H       1  ZINC000807524472    0.0700
     43 H43       -17.2409   -0.2755   55.8281 H       1  ZINC000807524472    0.0700
     44 H44       -18.7331   -1.1944   56.1389 H       1  ZINC000807524472    0.0700
     45 H45       -17.8517   -0.2369   58.2402 H       1  ZINC000807524472    0.0800
     46 H46       -17.7660   -2.0149   58.2812 H       1  ZINC000807524472    0.0700
     47 H47       -15.6538   -1.1058   59.1046 H       1  ZINC000807524472    0.0900
     48 H48       -15.4813   -0.0993   57.6437 H       1  ZINC000807524472    0.0800
     49 H49       -13.0640   -2.9956   60.7621 H       1  ZINC000807524472    0.1500
     50 H50       -11.2200   -1.6520   61.6706 H       1  ZINC000807524472    0.1400
     51 H51       -10.6845    1.8012   61.1056 H       1  ZINC000807524472    0.0900
     52 H52       -10.8683    0.3216   62.1026 H       1  ZINC000807524472    0.0500
     53 H53        -8.3670    2.0586   61.7171 H       1  ZINC000807524472    0.0800
     54 H54        -9.0756    1.4519   63.2498 H       1  ZINC000807524472    0.0800
     55 H55        -7.0127    0.1525   61.8837 H       1  ZINC000807524472    0.0800
     56 H56        -8.1709   -0.6874   62.9589 H       1  ZINC000807524472    0.0700
     57 H57        -9.0811   -1.7622   61.1537 H       1  ZINC000807524472    0.0500
     58 H58        -7.9002   -0.9524   60.0854 H       1  ZINC000807524472    0.0900
@<TRIPOS>BOND
     1     1     2    1
     2     1    29    1
     3     1    30    1
     4     1    31    1
     5     2     3    1
     6     2    32    1
     7     2    33    1
     8     3     4    1
     9     4     5    1
    10     4    34    1
    11     4    35    1
    12     5     6    1
    13     5    36    1
    14     5    37    1
    15     6     7    1
    16     7     8    2
    17     7     9    1
    18     9    23   ar
    19     9    10   ar
    20    10    11   ar
    21    10    38    1
    22    11    12    1
    23    11    21   ar
    24    12    13    2
    25    12    14    2
    26    12    15   am
    27    15    20    1
    28    15    16    1
    29    16    17    1
    30    16    39    1
    31    16    40    1
    32    17    18    1
    33    17    41    1
    34    17    42    1
    35    18    19    1
    36    18    43    1
    37    18    44    1
    38    19    20    1
    39    19    45    1
    40    19    46    1
    41    20    47    1
    42    20    48    1
    43    21    22   ar
    44    21    49    1
    45    22    23   ar
    46    22    50    1
    47    23    24    1
    48    24    28    1
    49    24    25    1
    50    25    26    1
    51    25    51    1
    52    25    52    1
    53    26    27    1
    54    26    53    1
    55    26    54    1
    56    27    28    1
    57    27    55    1
    58    27    56    1
    59    28    57    1
    60    28    58    1
@<TRIPOS>SUBSTRUCTURE
     1 ZINC000807524472        1 TEMP              0 ****  ****    0 ROOT


##########                                Name:    ZINC000433533595
##########                DOCK_Rotatable_Bonds:                  10
##########                         Heavy_Atoms:                  24
##########                    Molecular_Weight:             397.312
##########                DOCK_Rotatable_Bonds:                  10
##########                       Formal_Charge:          0.00999916
##########                     HBond_Acceptors:                   5
##########                        HBond_Donors:                   1
##########                         Heavy_Atoms:                  24
##########                          Grid_Score:          -31.183964
##########                     Grid_vdw_energy:          -30.624393
##########                      Grid_es_energy:           -0.559570
##########           Internal_energy_repulsive:           17.957186

@<TRIPOS>MOLECULE
ZINC000433533595
 49 50 1 0 0
SMALL
USER_CHARGES


@<TRIPOS>ATOM
      1 C1         -0.8225   -1.6182   48.8596 C.3     1  ZINC000433533595   -0.1500
      2 C2          0.1345   -0.6367   49.5389 C.3     1  ZINC000433533595   -0.1200
      3 C3          1.0977   -0.0609   48.4990 C.3     1  ZINC000433533595   -0.1300
      4 C4          0.8352    1.4374   48.3350 C.3     1  ZINC000433533595    0.1000
      5 N5         -0.3309    1.6371   47.4708 N.am    1  ZINC000433533595   -0.5500
      6 C6         -1.3512    2.4144   47.8848 C.2     1  ZINC000433533595    0.5100
      7 O7         -2.3171    2.5798   47.1690 O.2     1  ZINC000433533595   -0.5100
      8 C8         -1.2930    3.0722   49.2242 C.2     1  ZINC000433533595    0.5000
      9 O9         -0.5792    4.0391   49.3951 O.2     1  ZINC000433533595   -0.4900
     10 N10        -2.0330    2.5923   50.2433 N.am    1  ZINC000433533595   -0.6300
     11 C11        -1.9785    3.2083   51.4979 C.ar    1  ZINC000433533595    0.1200
     12 C12        -0.7726    3.2947   52.1787 C.ar    1  ZINC000433533595   -0.0600
     13 C13        -0.7216    3.9043   53.4189 C.ar    1  ZINC000433533595   -0.1100
     14 Br14        0.9228    4.0218   54.3453 Br      1  ZINC000433533595   -0.0400
     15 C15        -1.8706    4.4287   53.9832 C.ar    1  ZINC000433533595   -0.0600
     16 C16        -3.0759    4.3461   53.3103 C.ar    1  ZINC000433533595   -0.1900
     17 C17        -3.1345    3.7423   52.0652 C.ar    1  ZINC000433533595    0.1300
     18 O18        -4.3192    3.6606   51.4026 O.3     1  ZINC000433533595   -0.3100
     19 C19        -5.0042    2.4074   51.4504 C.3     1  ZINC000433533595    0.0800
     20 C20        -6.1306    2.4810   52.4832 C.3     1  ZINC000433533595   -0.1500
     21 C21        -5.5943    2.0960   50.0735 C.3     1  ZINC000433533595   -0.1800
     22 C22        -0.3879    0.9919   46.1568 C.3     1  ZINC000433533595    0.0600
     23 C23        -0.5348    1.8963   44.9316 C.3     1  ZINC000433533595   -0.1900
     24 C24         0.7991    1.2022   45.2145 C.3     1  ZINC000433533595   -0.1800
     25 H25        -0.2510   -2.4280   48.4061 H       1  ZINC000433533595    0.0500
     26 H26        -1.5087   -2.0283   49.6005 H       1  ZINC000433533595    0.0500
     27 H27        -1.3897   -1.0973   48.0880 H       1  ZINC000433533595    0.0500
     28 H28        -0.4370    0.1732   49.9924 H       1  ZINC000433533595    0.0700
     29 H29         0.7017   -1.1575   50.3106 H       1  ZINC000433533595    0.0600
     30 H30         2.1247   -0.2157   48.8299 H       1  ZINC000433533595    0.0600
     31 H31         0.9442   -0.5633   47.5440 H       1  ZINC000433533595    0.0700
     32 H32         0.6439    1.8819   49.3117 H       1  ZINC000433533595    0.1100
     33 H33         1.7068    1.9119   47.8843 H       1  ZINC000433533595    0.0800
     34 H34        -2.6032    1.8196   50.1068 H       1  ZINC000433533595    0.4300
     35 H35         0.1258    2.8857   51.7404 H       1  ZINC000433533595    0.1600
     36 H36        -1.8263    4.9037   54.9522 H       1  ZINC000433533595    0.1400
     37 H37        -3.9709    4.7567   53.7539 H       1  ZINC000433533595    0.1500
     38 H38        -4.3039    1.6211   51.7318 H       1  ZINC000433533595    0.0800
     39 H39        -6.8309    3.2674   52.2017 H       1  ZINC000433533595    0.0700
     40 H40        -6.6531    1.5251   52.5196 H       1  ZINC000433533595    0.0800
     41 H41        -5.7102    2.7029   53.4641 H       1  ZINC000433533595    0.0700
     42 H42        -6.2946    2.8825   49.7920 H       1  ZINC000433533595    0.0700
     43 H43        -4.7918    2.0437   49.3377 H       1  ZINC000433533595    0.0600
     44 H44        -6.1168    1.1402   50.1099 H       1  ZINC000433533595    0.0800
     45 H45        -0.8862    0.0228   46.1301 H       1  ZINC000433533595    0.1400
     46 H46        -1.1299    1.5224   44.0985 H       1  ZINC000433533595    0.0900
     47 H47        -0.5890    2.9714   45.1031 H       1  ZINC000433533595    0.1400
     48 H48         1.6222    1.8206   45.5723 H       1  ZINC000433533595    0.1000
     49 H49         1.0813    0.3716   44.5676 H       1  ZINC000433533595    0.1000
@<TRIPOS>BOND
     1     1     2    1
     2     1    25    1
     3     1    26    1
     4     1    27    1
     5     2     3    1
     6     2    28    1
     7     2    29    1
     8     3     4    1
     9     3    30    1
    10     3    31    1
    11     4     5    1
    12     4    32    1
    13     4    33    1
    14     5     6   am
    15     5    22    1
    16     6     7    2
    17     6     8    1
    18     8     9    2
    19     8    10   am
    20    10    11    1
    21    10    34    1
    22    11    17   ar
    23    11    12   ar
    24    12    13   ar
    25    12    35    1
    26    13    14    1
    27    13    15   ar
    28    15    16   ar
    29    15    36    1
    30    16    17   ar
    31    16    37    1
    32    17    18    1
    33    18    19    1
    34    19    20    1
    35    19    21    1
    36    19    38    1
    37    20    39    1
    38    20    40    1
    39    20    41    1
    40    21    42    1
    41    21    43    1
    42    21    44    1
    43    22    24    1
    44    22    23    1
    45    22    45    1
    46    23    24    1
    47    23    46    1
    48    23    47    1
    49    24    48    1
    50    24    49    1
@<TRIPOS>SUBSTRUCTURE
     1 ZINC000433533595        1 TEMP              0 ****  ****    0 ROOT


##########                                Name:    ZINC000457806032
##########                DOCK_Rotatable_Bonds:                   8
##########                         Heavy_Atoms:                  24
##########                    Molecular_Weight:             387.911
##########                DOCK_Rotatable_Bonds:                   8
##########                       Formal_Charge:        -1.49012e-07
##########                     HBond_Acceptors:                   9
##########                        HBond_Donors:                   2
##########                         Heavy_Atoms:                  24
##########                          Grid_Score:          -31.175924
##########                     Grid_vdw_energy:          -30.368334
##########                      Grid_es_energy:           -0.807590
##########           Internal_energy_repulsive:            5.523931

@<TRIPOS>MOLECULE
ZINC000457806032
 42 43 1 0 0
SMALL
USER_CHARGES


@<TRIPOS>ATOM
      1 C1        -12.8750    0.3157   50.8919 C.3     1  ZINC000457806032    0.0800
      2 N2        -12.4360   -0.0117   52.2508 N.am    1  ZINC000457806032   -1.0100
      3 C3        -13.4055   -0.0318   53.3488 C.3     1  ZINC000457806032    0.0900
      4 S4        -10.8439   -0.3591   52.5455 S.o2    1  ZINC000457806032    2.7900
      5 O5        -10.7139   -0.4803   53.9553 O.2     1  ZINC000457806032   -0.9700
      6 O6        -10.4847   -1.3938   51.6401 O.2     1  ZINC000457806032   -0.9700
      7 N7         -9.9624    0.9726   52.1073 N.am    1  ZINC000457806032   -1.1300
      8 C8         -8.5047    0.9669   52.2538 C.3     1  ZINC000457806032    0.1100
      9 C9         -7.9760    2.3986   52.1486 C.3     1  ZINC000457806032    0.1100
     10 N10        -6.6074    2.3767   51.6264 N.am    1  ZINC000457806032   -0.7300
     11 C11        -5.6765    3.2046   52.1406 C.2     1  ZINC000457806032    0.5800
     12 O12        -5.9723    3.9691   53.0393 O.2     1  ZINC000457806032   -0.5300
     13 C13        -4.3014    3.1837   51.6146 C.2     1  ZINC000457806032   -0.1500
     14 C14        -3.2849    3.9037   52.1662 C.2     1  ZINC000457806032   -0.2200
     15 S15        -1.8336    3.6447   51.3077 S.3     1  ZINC000457806032    0.2400
     16 C16        -2.6243    2.5453   50.1886 C.2     1  ZINC000457806032   -0.1700
     17 C17        -1.9577    1.8550   49.0634 C.ar    1  ZINC000457806032   -0.0100
     18 C18        -1.9464    0.4608   49.0049 C.ar    1  ZINC000457806032   -0.0900
     19 C19        -1.3229   -0.1777   47.9529 C.ar    1  ZINC000457806032   -0.1000
     20 C20        -0.7088    0.5622   46.9565 C.ar    1  ZINC000457806032   -0.0300
     21 Cl21        0.0743   -0.2482   45.6360 Cl      1  ZINC000457806032   -0.0600
     22 C22        -0.7172    1.9457   47.0090 C.ar    1  ZINC000457806032   -0.1000
     23 C23        -1.3425    2.5953   48.0531 C.ar    1  ZINC000457806032   -0.1000
     24 C24        -3.9219    2.4199   50.5096 C.2     1  ZINC000457806032   -0.0700
     25 H25       -12.8001    1.3918   50.7353 H       1  ZINC000457806032    0.0600
     26 H26       -12.2416   -0.2013   50.1710 H       1  ZINC000457806032    0.0800
     27 H27       -13.9097    0.0002   50.7585 H       1  ZINC000457806032    0.0800
     28 H28       -13.8297   -1.0317   53.4408 H       1  ZINC000457806032    0.0600
     29 H29       -12.9061    0.2381   54.2794 H       1  ZINC000457806032    0.0700
     30 H30       -14.2021    0.6832   53.1434 H       1  ZINC000457806032    0.0700
     31 H31       -10.4112    1.7563   51.7535 H       1  ZINC000457806032    0.4200
     32 H32        -8.2390    0.5519   53.2261 H       1  ZINC000457806032    0.0700
     33 H33        -8.0627    0.3574   51.4656 H       1  ZINC000457806032    0.0900
     34 H34        -8.6126    2.9725   51.4752 H       1  ZINC000457806032    0.0800
     35 H35        -7.9810    2.8613   53.1356 H       1  ZINC000457806032    0.0800
     36 H36        -6.3711    1.7662   50.9106 H       1  ZINC000457806032    0.4000
     37 H37        -3.3841    4.5484   53.0269 H       1  ZINC000457806032    0.1700
     38 H38        -2.4245   -0.1173   49.7818 H       1  ZINC000457806032    0.1400
     39 H39        -1.3136   -1.2566   47.9065 H       1  ZINC000457806032    0.1400
     40 H40        -0.2365    2.5176   46.2290 H       1  ZINC000457806032    0.1400
     41 H41        -1.3487    3.6746   48.0929 H       1  ZINC000457806032    0.1300
     42 H42        -4.6088    1.7936   49.9599 H       1  ZINC000457806032    0.1600
@<TRIPOS>BOND
     1     1     2    1
     2     1    25    1
     3     1    26    1
     4     1    27    1
     5     2     3    1
     6     2     4   am
     7     3    28    1
     8     3    29    1
     9     3    30    1
    10     4     5    2
    11     4     6    2
    12     4     7   am
    13     7     8    1
    14     7    31    1
    15     8     9    1
    16     8    32    1
    17     8    33    1
    18     9    10    1
    19     9    34    1
    20     9    35    1
    21    10    11   am
    22    10    36    1
    23    11    12    2
    24    11    13    1
    25    13    24    1
    26    13    14    2
    27    14    15    1
    28    14    37    1
    29    15    16    1
    30    16    17    1
    31    16    24    2
    32    17    23   ar
    33    17    18   ar
    34    18    19   ar
    35    18    38    1
    36    19    20   ar
    37    19    39    1
    38    20    21    1
    39    20    22   ar
    40    22    23   ar
    41    22    40    1
    42    23    41    1
    43    24    42    1
@<TRIPOS>SUBSTRUCTURE
     1 ZINC000457806032        1 TEMP              0 ****  ****    0 ROOT


##########                                Name:    ZINC000047262406
##########                DOCK_Rotatable_Bonds:                   6
##########                         Heavy_Atoms:                  28
##########                    Molecular_Weight:             417.919
##########                DOCK_Rotatable_Bonds:                   6
##########                       Formal_Charge:          -0.0100002
##########                     HBond_Acceptors:                   9
##########                        HBond_Donors:                   1
##########                         Heavy_Atoms:                  28
##########                          Grid_Score:          -31.161863
##########                     Grid_vdw_energy:          -30.992439
##########                      Grid_es_energy:           -0.169423
##########           Internal_energy_repulsive:           13.126085

@<TRIPOS>MOLECULE
ZINC000047262406
 48 51 1 0 0
SMALL
USER_CHARGES


@<TRIPOS>ATOM
      1 C1         -4.2605    4.3544   56.4154 C.3     1  ZINC000047262406   -0.1500
      2 C2         -5.4309    4.1996   55.4421 C.3     1  ZINC000047262406    0.1800
      3 H3         -5.8504    5.1808   55.2194 H       1  ZINC000047262406    0.0800
      4 C4         -6.4915    3.3297   56.0660 C.2     1  ZINC000047262406    0.1700
      5 N5         -6.2876    2.3351   56.8829 N.2     1  ZINC000047262406   -0.2500
      6 N6         -7.4153    1.8153   57.2197 N.2     1  ZINC000047262406   -0.2700
      7 C7         -8.3886    2.4679   56.6224 C.2     1  ZINC000047262406    0.2400
      8 C8         -9.8277    2.1902   56.7418 C.2     1  ZINC000047262406   -0.1500
      9 C9        -10.8176    2.8767   56.1072 C.2     1  ZINC000047262406   -0.0600
     10 C10       -12.0899    2.4255   56.3807 C.2     1  ZINC000047262406   -0.1400
     11 C11       -12.1575    1.3889   57.2225 C.2     1  ZINC000047262406   -0.1900
     12 S12       -10.5396    0.9143   57.7211 S.3     1  ZINC000047262406    0.1700
     13 O13        -7.8199    3.4438   55.8847 O.3     1  ZINC000047262406   -0.2200
     14 N14        -4.9554    3.5769   54.1995 N.3     1  ZINC000047262406   -0.5200
     15 C15        -4.2259    4.5454   53.3712 C.3     1  ZINC000047262406    0.0500
     16 C16        -3.6226    3.8305   52.1599 C.3     1  ZINC000047262406   -0.1000
     17 C17        -4.7447    3.1785   51.3472 C.3     1  ZINC000047262406   -0.1100
     18 C18        -4.1517    2.4226   50.1861 C.2     1  ZINC000047262406    0.5100
     19 O19        -4.8702    1.7787   49.4513 O.2     1  ZINC000047262406   -0.4600
     20 N20        -2.8229    2.4623   49.9644 N.am    1  ZINC000047262406   -0.6600
     21 C21        -2.2741    1.7628   48.8900 C.ar    1  ZINC000047262406    0.3600
     22 C22        -1.8818    0.4401   49.0583 C.ar    1  ZINC000047262406   -0.2000
     23 C23        -1.3389   -0.2432   47.9841 C.ar    1  ZINC000047262406   -0.0400
     24 C24        -1.2067    0.4238   46.7732 C.ar    1  ZINC000047262406   -0.1200
     25 Cl25       -0.5326   -0.3868   45.3939 Cl      1  ZINC000047262406   -0.0500
     26 C26        -1.6182    1.7400   46.6779 C.ar    1  ZINC000047262406    0.1500
     27 N27        -2.1367    2.3632   47.7184 N.ar    1  ZINC000047262406   -0.4600
     28 C28        -5.5191    2.2106   52.2461 C.3     1  ZINC000047262406   -0.1100
     29 C29        -6.0673    2.9724   53.4548 C.3     1  ZINC000047262406    0.0600
     30 H30        -3.4934    4.9835   55.9640 H       1  ZINC000047262406    0.0800
     31 H31        -4.6133    4.8164   57.3373 H       1  ZINC000047262406    0.0700
     32 H32        -3.8410    3.3732   56.6380 H       1  ZINC000047262406    0.0800
     33 H33       -10.6213    3.7065   55.4444 H       1  ZINC000047262406    0.1600
     34 H34       -12.9699    2.8770   55.9467 H       1  ZINC000047262406    0.1600
     35 H35       -13.0707    0.9110   57.5451 H       1  ZINC000047262406    0.1800
     36 H36        -4.9116    5.3213   53.0305 H       1  ZINC000047262406    0.0400
     37 H37        -3.4283    4.9987   53.9596 H       1  ZINC000047262406    0.0900
     38 H38        -3.0945    4.5525   51.5370 H       1  ZINC000047262406    0.0800
     39 H39        -2.9264    3.0637   52.4994 H       1  ZINC000047262406    0.0900
     40 H40        -5.4192    3.9491   50.9738 H       1  ZINC000047262406    0.1000
     41 H41        -2.2483    2.9772   50.5522 H       1  ZINC000047262406    0.4200
     42 H42        -1.9988   -0.0479   50.0146 H       1  ZINC000047262406    0.1500
     43 H43        -1.0249   -1.2716   48.0853 H       1  ZINC000047262406    0.1500
     44 H44        -1.5173    2.2636   45.7387 H       1  ZINC000047262406    0.1700
     45 H45        -6.3458    1.7751   51.6848 H       1  ZINC000047262406    0.0700
     46 H46        -4.8526    1.4183   52.5870 H       1  ZINC000047262406    0.0800
     47 H47        -6.6072    2.2832   54.1041 H       1  ZINC000047262406    0.0700
     48 H48        -6.7444    3.7557   53.1139 H       1  ZINC000047262406    0.0400
@<TRIPOS>BOND
     1     1     2    1
     2     1    30    1
     3     1    31    1
     4     1    32    1
     5     2     3    1
     6     2     4    1
     7     2    14    1
     8     4    13    1
     9     4     5    2
    10     5     6    1
    11     6     7    2
    12     7     8    1
    13     7    13    1
    14     8    12    1
    15     8     9    2
    16     9    10    1
    17     9    33    1
    18    10    11    2
    19    10    34    1
    20    11    12    1
    21    11    35    1
    22    14    29    1
    23    14    15    1
    24    15    16    1
    25    15    36    1
    26    15    37    1
    27    16    17    1
    28    16    38    1
    29    16    39    1
    30    17    18    1
    31    17    28    1
    32    17    40    1
    33    18    19    2
    34    18    20   am
    35    20    21    1
    36    20    41    1
    37    21    27   ar
    38    21    22   ar
    39    22    23   ar
    40    22    42    1
    41    23    24   ar
    42    23    43    1
    43    24    25    1
    44    24    26   ar
    45    26    27   ar
    46    26    44    1
    47    28    29    1
    48    28    45    1
    49    28    46    1
    50    29    47    1
    51    29    48    1
@<TRIPOS>SUBSTRUCTURE
     1 ZINC000047262406        1 TEMP              0 ****  ****    0 ROOT


##########                                Name:    ZINC001369071670
##########                DOCK_Rotatable_Bonds:                   8
##########                         Heavy_Atoms:                  24
##########                    Molecular_Weight:             335.366
##########                DOCK_Rotatable_Bonds:                   8
##########                       Formal_Charge:        -2.90573e-07
##########                     HBond_Acceptors:                  10
##########                        HBond_Donors:                   1
##########                         Heavy_Atoms:                  24
##########                          Grid_Score:          -31.156256
##########                     Grid_vdw_energy:          -31.432589
##########                      Grid_es_energy:            0.276333
##########           Internal_energy_repulsive:            8.456677

@<TRIPOS>MOLECULE
ZINC001369071670
 45 47 1 0 0
SMALL
USER_CHARGES


@<TRIPOS>ATOM
      1 C1        -11.9845   -0.2003   54.6472 C.3     1  ZINC001369071670   -0.0800
      2 C2        -10.9018   -0.2549   53.6003 C.2     1  ZINC001369071670    0.0000
      3 C3         -9.9377    0.6693   53.3853 C.2     1  ZINC001369071670   -0.2300
      4 C4         -9.1913    0.1394   52.3006 C.2     1  ZINC001369071670    0.2100
      5 O5         -8.1075    0.7002   51.7068 O.3     1  ZINC001369071670   -0.2600
      6 C6         -7.6705    1.9627   52.2139 C.3     1  ZINC001369071670    0.0400
      7 C7         -6.4930    2.4474   51.4081 C.2     1  ZINC001369071670    0.5200
      8 O8         -6.4216    2.1918   50.2246 O.2     1  ZINC001369071670   -0.5100
      9 N9         -5.5192    3.1651   52.0024 N.am    1  ZINC001369071670   -0.7200
     10 C10        -4.3754    3.6378   51.2186 C.3     1  ZINC001369071670    0.1500
     11 H11        -4.6966    3.8509   50.1991 H       1  ZINC001369071670    0.0900
     12 C12        -3.8137    4.9117   51.8532 C.3     1  ZINC001369071670   -0.1700
     13 C13        -3.2912    2.5583   51.1964 C.3     1  ZINC001369071670   -0.1200
     14 C14        -3.3930    1.6025   49.9941 C.3     1  ZINC001369071670    0.0100
     15 N15        -1.9202    1.7144   49.9066 N.3     1  ZINC001369071670   -0.4800
     16 C16        -1.4848    1.8537   48.5106 C.3     1  ZINC001369071670    0.1000
     17 C17        -0.8928    0.5514   48.0367 C.2     1  ZINC001369071670    0.1900
     18 N18        -0.5522   -0.4708   48.7830 N.2     1  ZINC001369071670   -0.3000
     19 N19        -0.0861   -1.3901   48.0100 N.2     1  ZINC001369071670   -0.0700
     20 N20        -0.1204   -0.9808   46.7900 N.2     1  ZINC001369071670   -0.0900
     21 N21        -0.6164    0.2100   46.7645 N.pl3   1  ZINC001369071670   -0.3000
     22 C22        -0.8298    1.0385   45.5753 C.3     1  ZINC001369071670    0.0800
     23 C23        -1.9602    3.0295   50.5834 C.3     1  ZINC001369071670    0.0200
     24 N24        -9.7561   -0.9962   51.9886 N.2     1  ZINC001369071670   -0.4100
     25 O25       -10.7023   -1.2317   52.7038 O.3     1  ZINC001369071670    0.1000
     26 H26       -12.6055   -1.0931   54.5745 H       1  ZINC001369071670    0.0900
     27 H27       -11.5307   -0.1531   55.6371 H       1  ZINC001369071670    0.1000
     28 H28       -12.6003    0.6847   54.4872 H       1  ZINC001369071670    0.1000
     29 H29        -9.7740    1.5956   53.9158 H       1  ZINC001369071670    0.1800
     30 H30        -8.4836    2.6851   52.1398 H       1  ZINC001369071670    0.1000
     31 H31        -7.3761    1.8529   53.2576 H       1  ZINC001369071670    0.1000
     32 H32        -5.5757    3.3685   52.9491 H       1  ZINC001369071670    0.4000
     33 H33        -4.5861    5.6806   51.8689 H       1  ZINC001369071670    0.0600
     34 H34        -3.4925    4.6986   52.8727 H       1  ZINC001369071670    0.0600
     35 H35        -2.9626    5.2634   51.2701 H       1  ZINC001369071670    0.0700
     36 H36        -3.1778    2.0506   52.1542 H       1  ZINC001369071670    0.1100
     37 H37        -3.7428    0.6038   50.2554 H       1  ZINC001369071670    0.1000
     38 H38        -3.9173    2.0278   49.1382 H       1  ZINC001369071670    0.0800
     39 H39        -2.3408    2.1118   47.8871 H       1  ZINC001369071670    0.1000
     40 H40        -0.7340    2.6408   48.4410 H       1  ZINC001369071670    0.0900
     41 H41        -1.8254    0.8487   45.1740 H       1  ZINC001369071670    0.1000
     42 H42        -0.7414    2.0909   45.8450 H       1  ZINC001369071670    0.1000
     43 H43        -0.0815    0.7923   44.8219 H       1  ZINC001369071670    0.1100
     44 H44        -2.0654    3.8721   49.8999 H       1  ZINC001369071670    0.0800
     45 H45        -1.1652    3.1710   51.3156 H       1  ZINC001369071670    0.1000
@<TRIPOS>BOND
     1     1     2    1
     2     1    26    1
     3     1    27    1
     4     1    28    1
     5     2    25    1
     6     2     3    2
     7     3     4    1
     8     3    29    1
     9     4     5    1
    10     4    24    2
    11     5     6    1
    12     6     7    1
    13     6    30    1
    14     6    31    1
    15     7     8    2
    16     7     9   am
    17     9    10    1
    18     9    32    1
    19    10    11    1
    20    10    12    1
    21    10    13    1
    22    12    33    1
    23    12    34    1
    24    12    35    1
    25    13    23    1
    26    13    14    1
    27    13    36    1
    28    14    15    1
    29    14    37    1
    30    14    38    1
    31    15    16    1
    32    15    23    1
    33    16    17    1
    34    16    39    1
    35    16    40    1
    36    17    21    1
    37    17    18    2
    38    18    19    1
    39    19    20    2
    40    20    21    1
    41    21    22    1
    42    22    41    1
    43    22    42    1
    44    22    43    1
    45    23    44    1
    46    23    45    1
    47    24    25    1
@<TRIPOS>SUBSTRUCTURE
     1 ZINC001369071670        1 TEMP              0 ****  ****    0 ROOT


##########                                Name:    ZINC000496437542
##########                DOCK_Rotatable_Bonds:                   7
##########                         Heavy_Atoms:                  24
##########                    Molecular_Weight:             338.447
##########                DOCK_Rotatable_Bonds:                   7
##########                       Formal_Charge:           0.0400002
##########                     HBond_Acceptors:                   6
##########                        HBond_Donors:                   1
##########                         Heavy_Atoms:                  24
##########                          Grid_Score:          -31.092728
##########                     Grid_vdw_energy:          -30.162640
##########                      Grid_es_energy:           -0.930088
##########           Internal_energy_repulsive:           38.733238

@<TRIPOS>MOLECULE
ZINC000496437542
 54 55 1 0 0
SMALL
USER_CHARGES


@<TRIPOS>ATOM
      1 C1         -4.9046    5.4393   57.6113 C.3     1  ZINC000496437542   -0.1800
      2 C2         -5.5276    4.7578   56.3912 C.3     1  ZINC000496437542    0.1400
      3 C3         -5.8627    3.3050   56.7342 C.3     1  ZINC000496437542   -0.1800
      4 C4         -6.8071    5.4961   55.9929 C.3     1  ZINC000496437542   -0.1400
      5 O5         -4.5864    4.7896   55.2861 O.3     1  ZINC000496437542   -0.3600
      6 C6         -4.9827    4.2260   54.1293 C.2     1  ZINC000496437542    0.6600
      7 O7         -6.0654    3.6788   54.0598 O.2     1  ZINC000496437542   -0.5600
      8 N8         -4.1786    4.2688   53.0486 N.am    1  ZINC000496437542   -0.6000
      9 C9         -2.8632    4.9257   53.1087 C.3     1  ZINC000496437542    0.0800
     10 C10        -1.8130    3.9569   52.5533 C.3     1  ZINC000496437542    0.0500
     11 O11        -2.2332    3.4937   51.2677 O.3     1  ZINC000496437542   -0.3700
     12 C12        -3.4555    2.7523   51.2835 C.3     1  ZINC000496437542    0.0700
     13 H13        -3.3553    1.8994   51.9548 H       1  ZINC000496437542    0.0700
     14 C14        -3.7706    2.2565   49.8708 C.3     1  ZINC000496437542    0.1300
     15 N15        -2.7131    1.3455   49.4257 N.am    1  ZINC000496437542   -0.7200
     16 C16        -2.2612    1.4061   48.1574 C.2     1  ZINC000496437542    0.5600
     17 O17        -2.7303    2.2179   47.3828 O.2     1  ZINC000496437542   -0.5400
     18 C18        -1.2006    0.4902   47.7099 C.2     1  ZINC000496437542   -0.1900
     19 C19        -0.6715    0.6352   46.5143 C.2     1  ZINC000496437542   -0.0600
     20 C20         0.4204   -0.3021   46.0434 C.3     1  ZINC000496437542   -0.1000
     21 C21         1.7032    0.0177   46.8142 C.3     1  ZINC000496437542   -0.1100
     22 C22         1.7360   -0.7241   48.1379 C.3     1  ZINC000496437542   -0.1200
     23 C23         0.6807   -0.2623   49.1263 C.3     1  ZINC000496437542   -0.1200
     24 C24        -0.7185   -0.6114   48.6300 C.3     1  ZINC000496437542   -0.0800
     25 C25        -4.5873    3.6545   51.7754 C.3     1  ZINC000496437542    0.1000
     26 H26        -3.9930    4.9133   57.8952 H       1  ZINC000496437542    0.0900
     27 H27        -4.6659    6.4743   57.3670 H       1  ZINC000496437542    0.0600
     28 H28        -5.6111    5.4155   58.4410 H       1  ZINC000496437542    0.0700
     29 H29        -6.5693    3.2812   57.5638 H       1  ZINC000496437542    0.0700
     30 H30        -6.3067    2.8196   55.8650 H       1  ZINC000496437542    0.0600
     31 H31        -4.9511    2.7790   57.0181 H       1  ZINC000496437542    0.0900
     32 H32        -6.5683    6.5311   55.7485 H       1  ZINC000496437542    0.0700
     33 H33        -7.2510    5.0107   55.1237 H       1  ZINC000496437542    0.0700
     34 H34        -7.5137    5.4723   56.8225 H       1  ZINC000496437542    0.0800
     35 H35        -2.8789    5.8345   52.5071 H       1  ZINC000496437542    0.0800
     36 H36        -2.6235    5.1736   54.1428 H       1  ZINC000496437542    0.1000
     37 H37        -0.8564    4.4711   52.4602 H       1  ZINC000496437542    0.1100
     38 H38        -1.7069    3.1084   53.2292 H       1  ZINC000496437542    0.0600
     39 H39        -4.7254    1.7305   49.8749 H       1  ZINC000496437542    0.0900
     40 H40        -3.8273    3.1070   49.1914 H       1  ZINC000496437542    0.0800
     41 H41        -2.3381    0.6989   50.0438 H       1  ZINC000496437542    0.4000
     42 H42        -1.0177    1.4262   45.8655 H       1  ZINC000496437542    0.1300
     43 H43         0.1253   -1.3336   46.2357 H       1  ZINC000496437542    0.0800
     44 H44         0.5896   -0.1601   44.9760 H       1  ZINC000496437542    0.0800
     45 H45         2.5645   -0.2788   46.2156 H       1  ZINC000496437542    0.0700
     46 H46         1.7504    1.0902   47.0028 H       1  ZINC000496437542    0.0700
     47 H47         1.5902   -1.7869   47.9448 H       1  ZINC000496437542    0.0600
     48 H48         2.7187   -0.5873   48.5891 H       1  ZINC000496437542    0.0600
     49 H49         0.8525   -0.7474   50.0872 H       1  ZINC000496437542    0.0700
     50 H50         0.7556    0.8178   49.2523 H       1  ZINC000496437542    0.0600
     51 H51        -1.3962   -0.7011   49.4790 H       1  ZINC000496437542    0.0700
     52 H52        -0.6880   -1.5529   48.0815 H       1  ZINC000496437542    0.0800
     53 H53        -5.4902    3.0623   51.9249 H       1  ZINC000496437542    0.1100
     54 H54        -4.7784    4.4371   51.0412 H       1  ZINC000496437542    0.0900
@<TRIPOS>BOND
     1     1     2    1
     2     1    26    1
     3     1    27    1
     4     1    28    1
     5     2     3    1
     6     2     4    1
     7     2     5    1
     8     3    29    1
     9     3    30    1
    10     3    31    1
    11     4    32    1
    12     4    33    1
    13     4    34    1
    14     5     6    1
    15     6     7    2
    16     6     8   am
    17     8    25    1
    18     8     9    1
    19     9    10    1
    20     9    35    1
    21     9    36    1
    22    10    11    1
    23    10    37    1
    24    10    38    1
    25    11    12    1
    26    12    13    1
    27    12    14    1
    28    12    25    1
    29    14    15    1
    30    14    39    1
    31    14    40    1
    32    15    16   am
    33    15    41    1
    34    16    17    2
    35    16    18    1
    36    18    24    1
    37    18    19    2
    38    19    20    1
    39    19    42    1
    40    20    21    1
    41    20    43    1
    42    20    44    1
    43    21    22    1
    44    21    45    1
    45    21    46    1
    46    22    23    1
    47    22    47    1
    48    22    48    1
    49    23    24    1
    50    23    49    1
    51    23    50    1
    52    24    51    1
    53    24    52    1
    54    25    53    1
    55    25    54    1
@<TRIPOS>SUBSTRUCTURE
     1 ZINC000496437542        1 TEMP              0 ****  ****    0 ROOT


##########                                Name:    ZINC000487792031
##########                DOCK_Rotatable_Bonds:                  12
##########                         Heavy_Atoms:                  29
##########                    Molecular_Weight:             414.569
##########                DOCK_Rotatable_Bonds:                  12
##########                       Formal_Charge:          -0.0100001
##########                     HBond_Acceptors:                   6
##########                        HBond_Donors:                   1
##########                         Heavy_Atoms:                  29
##########                          Grid_Score:          -31.022648
##########                     Grid_vdw_energy:          -28.607344
##########                      Grid_es_energy:           -2.415304
##########           Internal_energy_repulsive:           16.717243

@<TRIPOS>MOLECULE
ZINC000487792031
 59 60 1 0 0
SMALL
USER_CHARGES


@<TRIPOS>ATOM
      1 C1         -3.4142    5.5668   58.0389 C.2     1  ZINC000487792031   -0.1900
      2 C2         -2.1599    5.5007   58.4111 C.2     1  ZINC000487792031   -0.1500
      3 C3         -1.3041    4.3402   57.9732 C.3     1  ZINC000487792031   -0.0900
      4 C4         -0.6256    4.6796   56.6446 C.3     1  ZINC000487792031   -0.0900
      5 C5          0.2433    3.5013   56.2000 C.3     1  ZINC000487792031   -0.0700
      6 H6         -0.3796    2.6144   56.0829 H       1  ZINC000487792031    0.1100
      7 C7          0.9011    3.8304   54.8847 C.2     1  ZINC000487792031    0.5200
      8 O8          0.9596    4.9815   54.5072 O.2     1  ZINC000487792031   -0.5300
      9 N9          1.4242    2.8456   54.1278 N.am    1  ZINC000487792031   -0.7200
     10 C10         2.0621    3.1653   52.8483 C.3     1  ZINC000487792031    0.1500
     11 C11         1.2988    2.5071   51.7281 C.ar    1  ZINC000487792031   -0.0500
     12 C12         0.0610    2.9960   51.3544 C.ar    1  ZINC000487792031   -0.1200
     13 C13        -0.6392    2.3922   50.3268 C.ar    1  ZINC000487792031   -0.0200
     14 C14        -0.1014    1.2998   49.6724 C.ar    1  ZINC000487792031   -0.6700
     15 S15        -0.9941    0.5298   48.3629 S.o2    1  ZINC000487792031    2.6900
     16 O16        -0.7255   -0.8624   48.4585 O.2     1  ZINC000487792031   -0.9500
     17 O17        -2.3070    1.0723   48.3990 O.2     1  ZINC000487792031   -0.9500
     18 N18        -0.3161    1.0403   46.9410 N.am    1  ZINC000487792031   -1.0000
     19 C19        -0.2944    2.4674   46.6106 C.3     1  ZINC000487792031    0.1200
     20 C20         1.1110    3.0242   46.8471 C.3     1  ZINC000487792031   -0.1800
     21 C21         0.2620    0.0647   46.0134 C.3     1  ZINC000487792031    0.1100
     22 C22        -0.8620   -0.6663   45.2763 C.3     1  ZINC000487792031   -0.1800
     23 C23         1.1371    0.8116   50.0452 C.ar    1  ZINC000487792031   -0.0200
     24 C24         1.8390    1.4178   51.0703 C.ar    1  ZINC000487792031   -0.1200
     25 C25         1.3023    3.2378   57.2392 C.ar    1  ZINC000487792031   -0.0800
     26 C26         1.4601    1.9663   57.7582 C.ar    1  ZINC000487792031   -0.1100
     27 C27         2.4317    1.7246   58.7115 C.ar    1  ZINC000487792031   -0.1100
     28 C28         3.2456    2.7543   59.1453 C.ar    1  ZINC000487792031   -0.1200
     29 C29         3.0884    4.0255   58.6256 C.ar    1  ZINC000487792031   -0.1200
     30 C30         2.1197    4.2662   57.6692 C.ar    1  ZINC000487792031   -0.1100
     31 H31        -4.0275    6.3986   58.3527 H       1  ZINC000487792031    0.1000
     32 H32        -3.8337    4.7919   57.4145 H       1  ZINC000487792031    0.1000
     33 H33        -1.7392    6.2779   59.0319 H       1  ZINC000487792031    0.1100
     34 H34        -0.5443    4.1433   58.7294 H       1  ZINC000487792031    0.0700
     35 H35        -1.9285    3.4556   57.8467 H       1  ZINC000487792031    0.0700
     36 H36        -1.3854    4.8764   55.8883 H       1  ZINC000487792031    0.0800
     37 H37        -0.0012    5.5640   56.7711 H       1  ZINC000487792031    0.0700
     38 H38         1.3784    1.9251   54.4302 H       1  ZINC000487792031    0.4000
     39 H39         2.0622    4.2456   52.7023 H       1  ZINC000487792031    0.0800
     40 H40         3.0888    2.7993   52.8527 H       1  ZINC000487792031    0.0800
     41 H41        -0.3592    3.8496   51.8656 H       1  ZINC000487792031    0.1400
     42 H42        -1.6066    2.7738   50.0353 H       1  ZINC000487792031    0.1400
     43 H43        -0.5672    2.6023   45.5640 H       1  ZINC000487792031    0.0800
     44 H44        -1.0064    2.9976   47.2429 H       1  ZINC000487792031    0.0800
     45 H45         1.3839    2.8894   47.8937 H       1  ZINC000487792031    0.0600
     46 H46         1.8231    2.4940   46.2148 H       1  ZINC000487792031    0.0600
     47 H47         1.1272    4.0860   46.6013 H       1  ZINC000487792031    0.0700
     48 H48         0.8946    0.5807   45.2911 H       1  ZINC000487792031    0.0900
     49 H49         0.8602   -0.6562   46.5705 H       1  ZINC000487792031    0.0900
     50 H50        -1.4945   -1.1824   45.9987 H       1  ZINC000487792031    0.0600
     51 H51        -1.4602    0.0546   44.7192 H       1  ZINC000487792031    0.0600
     52 H52        -0.4318   -1.3921   44.5862 H       1  ZINC000487792031    0.0700
     53 H53         1.5575   -0.0417   49.5337 H       1  ZINC000487792031    0.1400
     54 H54         2.8066    1.0364   51.3615 H       1  ZINC000487792031    0.1400
     55 H55         0.8242    1.1619   57.4193 H       1  ZINC000487792031    0.1200
     56 H56         2.5545    0.7315   59.1175 H       1  ZINC000487792031    0.1200
     57 H57         4.0042    2.5656   59.8906 H       1  ZINC000487792031    0.1200
     58 H58         3.7240    4.8300   58.9648 H       1  ZINC000487792031    0.1200
     59 H59         1.9968    5.2595   57.2631 H       1  ZINC000487792031    0.1200
@<TRIPOS>BOND
     1     1     2    2
     2     1    31    1
     3     1    32    1
     4     2     3    1
     5     2    33    1
     6     3     4    1
     7     3    34    1
     8     3    35    1
     9     4     5    1
    10     4    36    1
    11     4    37    1
    12     5     6    1
    13     5     7    1
    14     5    25    1
    15     7     8    2
    16     7     9   am
    17     9    10    1
    18     9    38    1
    19    10    11    1
    20    10    39    1
    21    10    40    1
    22    11    24   ar
    23    11    12   ar
    24    12    13   ar
    25    12    41    1
    26    13    14   ar
    27    13    42    1
    28    14    15    1
    29    14    23   ar
    30    15    16    2
    31    15    17    2
    32    15    18   am
    33    18    19    1
    34    18    21    1
    35    19    20    1
    36    19    43    1
    37    19    44    1
    38    20    45    1
    39    20    46    1
    40    20    47    1
    41    21    22    1
    42    21    48    1
    43    21    49    1
    44    22    50    1
    45    22    51    1
    46    22    52    1
    47    23    24   ar
    48    23    53    1
    49    24    54    1
    50    25    30   ar
    51    25    26   ar
    52    26    27   ar
    53    26    55    1
    54    27    28   ar
    55    27    56    1
    56    28    29   ar
    57    28    57    1
    58    29    30   ar
    59    29    58    1
    60    30    59    1
@<TRIPOS>SUBSTRUCTURE
     1 ZINC000487792031        1 TEMP              0 ****  ****    0 ROOT


##########                                Name:    ZINC001070580102
##########                DOCK_Rotatable_Bonds:                   8
##########                         Heavy_Atoms:                  25
##########                    Molecular_Weight:              349.39
##########                DOCK_Rotatable_Bonds:                   8
##########                       Formal_Charge:          -0.0100003
##########                     HBond_Acceptors:                   9
##########                        HBond_Donors:                   3
##########                         Heavy_Atoms:                  25
##########                          Grid_Score:          -31.017506
##########                     Grid_vdw_energy:          -30.387953
##########                      Grid_es_energy:           -0.629552
##########           Internal_energy_repulsive:           17.280210

@<TRIPOS>MOLECULE
ZINC001070580102
 48 50 1 0 0
SMALL
USER_CHARGES


@<TRIPOS>ATOM
      1 C1        -11.0930    0.3319   53.2625 C.3     1  ZINC001070580102   -0.0800
      2 C2         -9.6875    0.5385   52.7596 C.2     1  ZINC001070580102   -0.0100
      3 C3         -9.0251    1.7054   52.7592 C.2     1  ZINC001070580102   -0.1900
      4 C4         -7.7037    1.4197   52.1812 C.2     1  ZINC001070580102   -0.2500
      5 C5         -6.6015    2.3735   51.9633 C.2     1  ZINC001070580102    0.6000
      6 O6         -6.7588    3.5525   52.2165 O.2     1  ZINC001070580102   -0.5300
      7 N7         -5.4193    1.9390   51.4836 N.am    1  ZINC001070580102   -0.7200
      8 C8         -4.3243    2.8875   51.2654 C.3     1  ZINC001070580102    0.2000
      9 C9         -3.5873    2.5221   50.0027 C.2     1  ZINC001070580102    0.2600
     10 N10        -2.5992    1.6696   49.9092 N.2     1  ZINC001070580102   -0.5100
     11 C11        -2.1874    1.5921   48.6444 C.2     1  ZINC001070580102    0.2300
     12 C12        -1.0693    0.7168   48.1397 C.3     1  ZINC001070580102    0.1400
     13 H13        -1.1321    0.6355   47.0546 H       1  ZINC001070580102    0.0800
     14 C14        -1.1884   -0.6758   48.7644 C.3     1  ZINC001070580102    0.0800
     15 O15        -0.0834   -1.4788   48.3410 O.3     1  ZINC001070580102   -0.3800
     16 C16         1.1919   -0.9336   48.6902 C.3     1  ZINC001070580102    0.0600
     17 C17         1.3351    0.4564   48.0647 C.3     1  ZINC001070580102    0.0200
     18 N18         0.2238    1.3079   48.5135 N.3     1  ZINC001070580102   -0.5200
     19 C19         0.3555    2.6701   47.9795 C.3     1  ZINC001070580102    0.0600
     20 C20         0.3513    3.6733   49.1348 C.3     1  ZINC001070580102    0.0800
     21 O21         0.7205    4.9643   48.6458 O.3     1  ZINC001070580102   -0.5700
     22 N22        -2.9109    2.3977   47.9123 N.2     1  ZINC001070580102   -0.2700
     23 N23        -3.8343    3.0107   48.7750 N.pl3   1  ZINC001070580102   -0.4700
     24 C24        -7.7109    0.0871   51.8894 C.2     1  ZINC001070580102    0.0900
     25 C25        -6.5730   -0.6869   51.2754 C.3     1  ZINC001070580102   -0.0900
     26 O26        -8.8965   -0.4163   52.2458 O.3     1  ZINC001070580102   -0.1700
     27 H27       -11.3708   -0.7154   53.1446 H       1  ZINC001070580102    0.0800
     28 H28       -11.1457    0.6054   54.3163 H       1  ZINC001070580102    0.0900
     29 H29       -11.7791    0.9564   52.6903 H       1  ZINC001070580102    0.0900
     30 H30        -9.3883    2.6596   53.1113 H       1  ZINC001070580102    0.1500
     31 H31        -5.2935    0.9985   51.2828 H       1  ZINC001070580102    0.4000
     32 H32        -4.7296    3.8950   51.1709 H       1  ZINC001070580102    0.1000
     33 H33        -3.6373    2.8501   52.1108 H       1  ZINC001070580102    0.1100
     34 H34        -1.1801   -0.5892   49.8509 H       1  ZINC001070580102    0.0700
     35 H35        -2.1205   -1.1405   48.4428 H       1  ZINC001070580102    0.1000
     36 H36         1.2693   -0.8545   49.7745 H       1  ZINC001070580102    0.0600
     37 H37         1.9813   -1.5848   48.3148 H       1  ZINC001070580102    0.1000
     38 H38         2.2815    0.8994   48.3750 H       1  ZINC001070580102    0.1200
     39 H39         1.3114    0.3708   46.9783 H       1  ZINC001070580102    0.0400
     40 H40         1.2916    2.7552   47.4279 H       1  ZINC001070580102    0.0500
     41 H41        -0.4801    2.8810   47.3122 H       1  ZINC001070580102    0.0800
     42 H42        -0.6466    3.7216   49.5705 H       1  ZINC001070580102    0.0500
     43 H43         1.0647    3.3550   49.8949 H       1  ZINC001070580102    0.0600
     44 H44         0.8839    5.6163   49.3410 H       1  ZINC001070580102    0.3800
     45 H45        -4.5114    3.6621   48.5339 H       1  ZINC001070580102    0.4400
     46 H46        -5.9336   -1.0809   52.0653 H       1  ZINC001070580102    0.0900
     47 H47        -6.9717   -1.5121   50.6852 H       1  ZINC001070580102    0.0800
     48 H48        -5.9909   -0.0278   50.6314 H       1  ZINC001070580102    0.1100
@<TRIPOS>BOND
     1     1     2    1
     2     1    27    1
     3     1    28    1
     4     1    29    1
     5     2    26    1
     6     2     3    2
     7     3     4    1
     8     3    30    1
     9     4     5    1
    10     4    24    2
    11     5     6    2
    12     5     7   am
    13     7     8    1
    14     7    31    1
    15     8     9    1
    16     8    32    1
    17     8    33    1
    18     9    23    1
    19     9    10    2
    20    10    11    1
    21    11    12    1
    22    11    22    2
    23    12    13    1
    24    12    18    1
    25    12    14    1
    26    14    15    1
    27    14    34    1
    28    14    35    1
    29    15    16    1
    30    16    17    1
    31    16    36    1
    32    16    37    1
    33    17    18    1
    34    17    38    1
    35    17    39    1
    36    18    19    1
    37    19    20    1
    38    19    40    1
    39    19    41    1
    40    20    21    1
    41    20    42    1
    42    20    43    1
    43    21    44    1
    44    22    23    1
    45    23    45    1
    46    24    25    1
    47    24    26    1
    48    25    46    1
    49    25    47    1
    50    25    48    1
@<TRIPOS>SUBSTRUCTURE
     1 ZINC001070580102        1 TEMP              0 ****  ****    0 ROOT


##########                                Name:    ZINC000989658617
##########                DOCK_Rotatable_Bonds:                   6
##########                         Heavy_Atoms:                  24
##########                    Molecular_Weight:             334.418
##########                DOCK_Rotatable_Bonds:                   6
##########                       Formal_Charge:          -0.0100001
##########                     HBond_Acceptors:                   7
##########                        HBond_Donors:                   2
##########                         Heavy_Atoms:                  24
##########                          Grid_Score:          -31.014643
##########                     Grid_vdw_energy:          -30.443272
##########                      Grid_es_energy:           -0.571371
##########           Internal_energy_repulsive:            8.914526

@<TRIPOS>MOLECULE
ZINC000989658617
 50 52 1 0 0
SMALL
USER_CHARGES


@<TRIPOS>ATOM
      1 C1        -10.6100    1.6891   54.2213 C.3     1  ZINC000989658617    0.0300
      2 O2         -9.1954    1.6649   54.0196 O.3     1  ZINC000989658617   -0.3700
      3 C3         -8.5851    2.9570   54.0270 C.3     1  ZINC000989658617    0.0500
      4 C4         -7.0932    2.8086   53.8745 C.2     1  ZINC000989658617    0.5300
      5 O5         -6.3910    2.6996   54.8574 O.2     1  ZINC000989658617   -0.5100
      6 N6         -6.5393    2.7968   52.6459 N.am    1  ZINC000989658617   -0.6200
      7 C7         -7.2713    2.9194   51.3722 C.3     1  ZINC000989658617    0.1000
      8 C8         -6.3527    2.2487   50.3206 C.3     1  ZINC000989658617   -0.1500
      9 C9         -4.9463    2.6741   50.8190 C.3     1  ZINC000989658617    0.1400
     10 H10        -4.6985    3.6751   50.4657 H       1  ZINC000989658617    0.1100
     11 N11        -3.9307    1.7092   50.3905 N.am    1  ZINC000989658617   -0.7100
     12 C12        -3.2482    1.9124   49.2463 C.2     1  ZINC000989658617    0.6100
     13 O13        -3.4764    2.8957   48.5689 O.2     1  ZINC000989658617   -0.5200
     14 C14        -2.2230    0.9404   48.8152 C.2     1  ZINC000989658617   -0.0100
     15 N15        -1.9355   -0.2131   49.3939 N.2     1  ZINC000989658617   -0.2600
     16 N16        -0.9886   -0.8073   48.7533 N.pl3   1  ZINC000989658617   -0.3700
     17 C17        -0.6032   -0.0611   47.7052 C.2     1  ZINC000989658617    0.0100
     18 C18        -1.3676    1.0586   47.7070 C.2     1  ZINC000989658617   -0.1400
     19 C19        -1.2584    2.1694   46.6991 C.3     1  ZINC000989658617   -0.0400
     20 C20         0.0796    2.0210   45.9621 C.3     1  ZINC000989658617   -0.0900
     21 H21         0.8968    2.2693   46.6393 H       1  ZINC000989658617    0.0700
     22 C22         0.1076    2.9677   44.7606 C.3     1  ZINC000989658617   -0.1500
     23 C23         0.2392    0.5774   45.4776 C.3     1  ZINC000989658617   -0.1100
     24 C24         0.4604   -0.3506   46.6773 C.3     1  ZINC000989658617   -0.0500
     25 C25        -5.1042    2.6661   52.3542 C.3     1  ZINC000989658617    0.1300
     26 H26        -4.7327    1.7252   52.7601 H       1  ZINC000989658617    0.0800
     27 C27        -4.3302    3.8370   52.9630 C.3     1  ZINC000989658617   -0.1600
     28 H28       -10.8316    2.1440   55.1867 H       1  ZINC000989658617    0.0500
     29 H29       -11.0801    2.2715   53.4288 H       1  ZINC000989658617    0.0400
     30 H30       -10.9972    0.6704   54.2021 H       1  ZINC000989658617    0.0900
     31 H31        -8.9777    3.5490   53.2005 H       1  ZINC000989658617    0.0800
     32 H32        -8.8059    3.4576   54.9697 H       1  ZINC000989658617    0.0800
     33 H33        -8.2257    2.3960   51.4311 H       1  ZINC000989658617    0.0800
     34 H34        -7.4282    3.9692   51.1243 H       1  ZINC000989658617    0.0800
     35 H35        -6.4627    1.1644   50.3406 H       1  ZINC000989658617    0.0800
     36 H36        -6.5490    2.6413   49.3230 H       1  ZINC000989658617    0.1000
     37 H37        -3.7494    0.9239   50.9304 H       1  ZINC000989658617    0.4100
     38 H38        -0.6097   -1.6674   48.9929 H       1  ZINC000989658617    0.4500
     39 H39        -2.0802    2.1008   45.9863 H       1  ZINC000989658617    0.0800
     40 H40        -1.2925    3.1324   47.2084 H       1  ZINC000989658617    0.0800
     41 H41        -0.0053    3.9956   45.1052 H       1  ZINC000989658617    0.0600
     42 H42         1.0578    2.8624   44.2370 H       1  ZINC000989658617    0.0600
     43 H43        -0.7097    2.7198   44.0834 H       1  ZINC000989658617    0.0600
     44 H44        -0.6623    0.2709   44.9472 H       1  ZINC000989658617    0.0700
     45 H45         1.0948    0.5127   44.8053 H       1  ZINC000989658617    0.0800
     46 H46         1.4431   -0.1634   47.1100 H       1  ZINC000989658617    0.0800
     47 H47         0.3921   -1.3897   46.3553 H       1  ZINC000989658617    0.0800
     48 H48        -4.7188    4.7749   52.5664 H       1  ZINC000989658617    0.0600
     49 H49        -4.4462    3.8249   54.0467 H       1  ZINC000989658617    0.0700
     50 H50        -3.2739    3.7453   52.7097 H       1  ZINC000989658617    0.0700
@<TRIPOS>BOND
     1     1     2    1
     2     1    28    1
     3     1    29    1
     4     1    30    1
     5     2     3    1
     6     3     4    1
     7     3    31    1
     8     3    32    1
     9     4     5    2
    10     4     6   am
    11     6    25    1
    12     6     7    1
    13     7     8    1
    14     7    33    1
    15     7    34    1
    16     8     9    1
    17     8    35    1
    18     8    36    1
    19     9    10    1
    20     9    11    1
    21     9    25    1
    22    11    12   am
    23    11    37    1
    24    12    13    2
    25    12    14    1
    26    14    18    1
    27    14    15    2
    28    15    16    1
    29    16    17    1
    30    16    38    1
    31    17    24    1
    32    17    18    2
    33    18    19    1
    34    19    20    1
    35    19    39    1
    36    19    40    1
    37    20    21    1
    38    20    22    1
    39    20    23    1
    40    22    41    1
    41    22    42    1
    42    22    43    1
    43    23    24    1
    44    23    44    1
    45    23    45    1
    46    24    46    1
    47    24    47    1
    48    25    26    1
    49    25    27    1
    50    27    48    1
    51    27    49    1
    52    27    50    1
@<TRIPOS>SUBSTRUCTURE
     1 ZINC000989658617        1 TEMP              0 ****  ****    0 ROOT


##########                                Name:    ZINC001143596311
##########                DOCK_Rotatable_Bonds:                   9
##########                         Heavy_Atoms:                  21
##########                    Molecular_Weight:             335.811
##########                DOCK_Rotatable_Bonds:                   9
##########                       Formal_Charge:          0.00999959
##########                     HBond_Acceptors:                   9
##########                        HBond_Donors:                   3
##########                         Heavy_Atoms:                  21
##########                          Grid_Score:          -30.987303
##########                     Grid_vdw_energy:          -30.501856
##########                      Grid_es_energy:           -0.485446
##########           Internal_energy_repulsive:           13.812324

@<TRIPOS>MOLECULE
ZINC001143596311
 39 39 1 0 0
SMALL
USER_CHARGES


@<TRIPOS>ATOM
      1 C1         -7.2196   -0.9821   51.6655 C.3     1  ZINC001143596311    0.0400
      2 O2         -6.2746    0.0495   51.3740 O.3     1  ZINC001143596311   -0.2600
      3 N3         -6.8836    1.3310   51.0176 N.3     1  ZINC001143596311   -0.3700
      4 C4         -7.7818    1.8008   52.0810 C.3     1  ZINC001143596311    0.0000
      5 C5         -5.8560    2.3360   50.7144 C.3     1  ZINC001143596311    0.0400
      6 C6         -4.9107    2.4755   51.9093 C.3     1  ZINC001143596311   -0.1300
      7 C7         -3.7675    3.4256   51.5471 C.3     1  ZINC001143596311    0.1200
      8 N8         -3.0576    2.9106   50.3736 N.am    1  ZINC001143596311   -0.7200
      9 C9         -1.7770    3.2667   50.1508 C.2     1  ZINC001143596311    0.5600
     10 O10        -1.2105    4.0140   50.9243 O.2     1  ZINC001143596311   -0.5200
     11 C11        -1.0613    2.7484   48.9661 C.ar    1  ZINC001143596311   -0.1500
     12 C12        -0.5094    3.6335   48.0383 C.ar    1  ZINC001143596311   -0.0200
     13 C13         0.1573    3.1439   46.9347 C.ar    1  ZINC001143596311   -0.1300
     14 C14         0.2795    1.7774   46.7458 C.ar    1  ZINC001143596311    0.0700
     15 Cl15        1.1201    1.1686   45.3542 Cl      1  ZINC001143596311   -0.0200
     16 C16        -0.2662    0.8942   47.6632 C.ar    1  ZINC001143596311   -0.6800
     17 S17        -0.1051   -0.8427   47.4146 S.o2    1  ZINC001143596311    2.7000
     18 N18        -0.8317   -1.5913   48.7007 N.am    1  ZINC001143596311   -1.2500
     19 O19        -0.8880   -1.1588   46.2717 O.2     1  ZINC001143596311   -0.9400
     20 O20         1.2821   -1.1351   47.5116 O.2     1  ZINC001143596311   -0.9500
     21 C21        -0.9296    1.3717   48.7735 C.ar    1  ZINC001143596311    0.0500
     22 H22        -7.8426   -0.6771   52.5063 H       1  ZINC001143596311    0.0400
     23 H23        -7.8481   -1.1565   50.7921 H       1  ZINC001143596311    0.0500
     24 H24        -6.6890   -1.8995   51.9203 H       1  ZINC001143596311    0.0900
     25 H25        -7.2167    1.9271   53.0045 H       1  ZINC001143596311    0.0400
     26 H26        -8.2209    2.7551   51.7903 H       1  ZINC001143596311    0.0900
     27 H27        -8.5741    1.0687   52.2370 H       1  ZINC001143596311    0.0800
     28 H28        -5.2893    2.0231   49.8375 H       1  ZINC001143596311    0.0500
     29 H29        -6.3336    3.2953   50.5150 H       1  ZINC001143596311    0.0900
     30 H30        -5.4594    2.8757   52.7619 H       1  ZINC001143596311    0.0800
     31 H31        -4.5030    1.4978   52.1661 H       1  ZINC001143596311    0.0800
     32 H32        -4.1725    4.4124   51.3226 H       1  ZINC001143596311    0.0800
     33 H33        -3.0763    3.4991   52.3866 H       1  ZINC001143596311    0.0800
     34 H34        -3.5093    2.3133   49.7570 H       1  ZINC001143596311    0.4000
     35 H35        -0.6046    4.6993   48.1842 H       1  ZINC001143596311    0.1500
     36 H36         0.5848    3.8275   46.2162 H       1  ZINC001143596311    0.1600
     37 H37        -0.5094   -1.4299   49.6013 H       1  ZINC001143596311    0.4200
     38 H38        -1.5796   -2.1912   48.5535 H       1  ZINC001143596311    0.4200
     39 H39        -1.3546    0.6823   49.4880 H       1  ZINC001143596311    0.1700
@<TRIPOS>BOND
     1     1     2    1
     2     1    22    1
     3     1    23    1
     4     1    24    1
     5     2     3    1
     6     3     4    1
     7     3     5    1
     8     4    25    1
     9     4    26    1
    10     4    27    1
    11     5     6    1
    12     5    28    1
    13     5    29    1
    14     6     7    1
    15     6    30    1
    16     6    31    1
    17     7     8    1
    18     7    32    1
    19     7    33    1
    20     8     9   am
    21     8    34    1
    22     9    10    2
    23     9    11    1
    24    11    21   ar
    25    11    12   ar
    26    12    13   ar
    27    12    35    1
    28    13    14   ar
    29    13    36    1
    30    14    15    1
    31    14    16   ar
    32    16    17    1
    33    16    21   ar
    34    17    18   am
    35    17    19    2
    36    17    20    2
    37    18    37    1
    38    18    38    1
    39    21    39    1
@<TRIPOS>SUBSTRUCTURE
     1 ZINC001143596311        1 TEMP              0 ****  ****    0 ROOT


##########                                Name:    ZINC001120957943
##########                DOCK_Rotatable_Bonds:                   4
##########                         Heavy_Atoms:                  27
##########                    Molecular_Weight:             396.802
##########                DOCK_Rotatable_Bonds:                   4
##########                       Formal_Charge:          -0.0199996
##########                     HBond_Acceptors:                  10
##########                        HBond_Donors:                   0
##########                         Heavy_Atoms:                  27
##########                          Grid_Score:          -30.954191
##########                     Grid_vdw_energy:          -30.788609
##########                      Grid_es_energy:           -0.165582
##########           Internal_energy_repulsive:            6.364322

@<TRIPOS>MOLECULE
ZINC001120957943
 43 46 1 0 0
SMALL
USER_CHARGES


@<TRIPOS>ATOM
      1 C1         -3.7552    3.7614   51.7901 C.3     1  ZINC001120957943    0.0900
      2 N2         -3.7380    2.9891   50.5453 N.pl3   1  ZINC001120957943   -0.6000
      3 C3         -4.9809    2.7717   49.8008 C.3     1  ZINC001120957943    0.2200
      4 C4         -5.9030    1.8947   50.6080 C.2     1  ZINC001120957943    0.1600
      5 N5         -5.7436    0.6202   50.8570 N.2     1  ZINC001120957943   -0.2500
      6 N6         -6.7230    0.1915   51.5771 N.2     1  ZINC001120957943   -0.2800
      7 C7         -7.5446    1.1680   51.8164 C.2     1  ZINC001120957943    0.1700
      8 C8         -8.8272    1.1437   52.6090 C.3     1  ZINC001120957943   -0.0300
      9 C9         -9.6221    2.4119   52.2702 C.3     1  ZINC001120957943   -0.1300
     10 C10        -8.7003    3.6303   52.3751 C.3     1  ZINC001120957943   -0.1500
     11 H11        -8.1816    3.6115   53.3337 H       1  ZINC001120957943    0.1300
     12 C12        -9.5328    4.9096   52.2712 C.3     1  ZINC001120957943    0.4600
     13 F13       -10.4757    4.9377   53.3043 F       1  ZINC001120957943   -0.1700
     14 F14        -8.6922    6.0231   52.3767 F       1  ZINC001120957943   -0.1800
     15 F15       -10.1919    4.9382   51.0375 F       1  ZINC001120957943   -0.1800
     16 C16        -7.6726    3.5966   51.2379 C.3     1  ZINC001120957943    0.1100
     17 N17        -7.0439    2.2763   51.2140 N.pl3   1  ZINC001120957943   -0.4700
     18 C18        -2.5448    2.4637   50.0716 C.ar    1  ZINC001120957943    0.3700
     19 C19        -1.4126    3.2901   49.9641 C.ar    1  ZINC001120957943    0.0500
     20 N20        -0.2762    2.8109   49.5189 N.ar    1  ZINC001120957943   -0.3900
     21 C21        -0.1897    1.5231   49.1624 C.ar    1  ZINC001120957943    0.0400
     22 C22         1.0165    0.9852   48.6829 C.ar    1  ZINC001120957943   -0.0600
     23 C23         1.0764   -0.3286   48.3278 C.ar    1  ZINC001120957943   -0.0400
     24 Cl24        2.5693   -0.9879   47.7360 Cl      1  ZINC001120957943   -0.0600
     25 C25        -0.0446   -1.1514   48.4334 C.ar    1  ZINC001120957943   -0.0800
     26 C26        -1.2289   -0.6640   48.8937 C.ar    1  ZINC001120957943   -0.0800
     27 C27        -1.3285    0.6867   49.2692 C.ar    1  ZINC001120957943    0.1400
     28 N28        -2.4798    1.1907   49.7304 N.ar    1  ZINC001120957943   -0.4700
     29 H29        -3.9277    3.0904   52.6316 H       1  ZINC001120957943    0.0700
     30 H30        -2.7975    4.2657   51.9181 H       1  ZINC001120957943    0.0800
     31 H31        -4.5533    4.5026   51.7468 H       1  ZINC001120957943    0.0700
     32 H32        -5.4639    3.7305   49.6123 H       1  ZINC001120957943    0.1200
     33 H33        -4.7555    2.2855   48.8516 H       1  ZINC001120957943    0.1000
     34 H34        -9.4091    0.2620   52.3404 H       1  ZINC001120957943    0.1100
     35 H35        -8.6007    1.1251   53.6750 H       1  ZINC001120957943    0.1000
     36 H36       -10.0117    2.3369   51.2550 H       1  ZINC001120957943    0.0900
     37 H37       -10.4499    2.5206   52.9710 H       1  ZINC001120957943    0.1000
     38 H38        -8.1725    3.7847   50.2877 H       1  ZINC001120957943    0.1000
     39 H39        -6.9117    4.3579   51.4101 H       1  ZINC001120957943    0.1100
     40 H40        -1.4795    4.3292   50.2504 H       1  ZINC001120957943    0.1700
     41 H41         1.8925    1.6108   48.5960 H       1  ZINC001120957943    0.1500
     42 H42         0.0280   -2.1898   48.1455 H       1  ZINC001120957943    0.1400
     43 H43        -2.0892   -1.3126   48.9700 H       1  ZINC001120957943    0.1500
@<TRIPOS>BOND
     1     1     2    1
     2     1    29    1
     3     1    30    1
     4     1    31    1
     5     2     3    1
     6     2    18    1
     7     3     4    1
     8     3    32    1
     9     3    33    1
    10     4    17    1
    11     4     5    2
    12     5     6    1
    13     6     7    2
    14     7    17    1
    15     7     8    1
    16     8     9    1
    17     8    34    1
    18     8    35    1
    19     9    10    1
    20     9    36    1
    21     9    37    1
    22    10    11    1
    23    10    12    1
    24    10    16    1
    25    12    13    1
    26    12    14    1
    27    12    15    1
    28    16    17    1
    29    16    38    1
    30    16    39    1
    31    18    28   ar
    32    18    19   ar
    33    19    20   ar
    34    19    40    1
    35    20    21   ar
    36    21    27   ar
    37    21    22   ar
    38    22    23   ar
    39    22    41    1
    40    23    24    1
    41    23    25   ar
    42    25    26   ar
    43    25    42    1
    44    26    27   ar
    45    26    43    1
    46    27    28   ar
@<TRIPOS>SUBSTRUCTURE
     1 ZINC001120957943        1 TEMP              0 ****  ****    0 ROOT


##########                                Name:    ZINC000437192871
##########                DOCK_Rotatable_Bonds:                   9
##########                         Heavy_Atoms:                  28
##########                    Molecular_Weight:             423.298
##########                DOCK_Rotatable_Bonds:                   9
##########                       Formal_Charge:         -8.9407e-08
##########                     HBond_Acceptors:                   9
##########                        HBond_Donors:                   1
##########                         Heavy_Atoms:                  28
##########                          Grid_Score:          -30.948578
##########                     Grid_vdw_energy:          -29.998016
##########                      Grid_es_energy:           -0.950561
##########           Internal_energy_repulsive:           15.360788

@<TRIPOS>MOLECULE
ZINC000437192871
 48 50 1 0 0
SMALL
USER_CHARGES


@<TRIPOS>ATOM
      1 C1          3.5008    1.4607   51.7288 C.3     1  ZINC000437192871   -0.1700
      2 C2          4.4078    1.7102   50.5221 C.3     1  ZINC000437192871    0.1300
      3 N3          3.5968    2.1518   49.3847 N.pl3   1  ZINC000437192871   -0.3600
      4 C4          3.0241    1.3528   48.4603 C.2     1  ZINC000437192871    0.0700
      5 C5          2.3648    2.1440   47.5826 C.2     1  ZINC000437192871   -0.2700
      6 C6          1.5791    1.6768   46.3846 C.3     1  ZINC000437192871    0.1900
      7 N7          0.4157    2.5465   46.1941 N.am    1  ZINC000437192871   -0.6000
      8 C8          0.5310    3.7550   45.3740 C.3     1  ZINC000437192871    0.1100
      9 C9          0.1317    3.4330   43.9325 C.3     1  ZINC000437192871    0.0600
     10 O10         0.2429    4.6119   43.1327 O.3     1  ZINC000437192871   -0.5600
     11 C11        -0.7607    2.2348   46.7733 C.2     1  ZINC000437192871    0.6000
     12 O12        -1.7265    2.9569   46.6154 O.2     1  ZINC000437192871   -0.5000
     13 C13        -0.8765    1.0199   47.5977 C.2     1  ZINC000437192871   -0.2200
     14 C14        -0.8911   -0.2909   47.1926 C.2     1  ZINC000437192871    0.0100
     15 C15        -0.7896   -0.7976   45.7769 C.3     1  ZINC000437192871   -0.0800
     16 O16        -1.0122   -1.0295   48.2980 O.3     1  ZINC000437192871    0.1100
     17 N17        -1.0731   -0.3732   49.3085 N.2     1  ZINC000437192871   -0.3200
     18 C18        -0.9991    0.9111   49.0666 C.2     1  ZINC000437192871    0.0800
     19 C19        -1.0389    2.0179   50.0525 C.ar    1  ZINC000437192871   -0.0200
     20 C20         0.1298    2.4266   50.6925 C.ar    1  ZINC000437192871   -0.0700
     21 C21         0.0877    3.4575   51.6087 C.ar    1  ZINC000437192871   -0.1000
     22 C22        -1.1126    4.0862   51.8933 C.ar    1  ZINC000437192871   -0.0100
     23 Cl23       -1.1576    5.3828   53.0469 Cl      1  ZINC000437192871   -0.0500
     24 C24        -2.2769    3.6850   51.2610 C.ar    1  ZINC000437192871   -0.1100
     25 C25        -2.2453    2.6580   50.3384 C.ar    1  ZINC000437192871    0.0000
     26 Cl26       -3.7056    2.1557   49.5455 Cl      1  ZINC000437192871   -0.0300
     27 C27         2.5407    3.4722   47.9844 C.2     1  ZINC000437192871    0.0600
     28 N28         3.2741    3.4776   49.0680 N.2     1  ZINC000437192871   -0.2900
     29 H29         4.1042    1.1321   52.5750 H       1  ZINC000437192871    0.0800
     30 H30         2.9809    2.3826   51.9894 H       1  ZINC000437192871    0.0600
     31 H31         2.7712    0.6895   51.4816 H       1  ZINC000437192871    0.0700
     32 H32         5.1374    2.4814   50.7693 H       1  ZINC000437192871    0.1000
     33 H33         4.9276    0.7883   50.2614 H       1  ZINC000437192871    0.0900
     34 H34         3.0818    0.2748   48.4268 H       1  ZINC000437192871    0.1600
     35 H35         2.2114    1.7163   45.4975 H       1  ZINC000437192871    0.0900
     36 H36         1.2442    0.6522   46.5467 H       1  ZINC000437192871    0.0800
     37 H37        -0.1288    4.5271   45.7699 H       1  ZINC000437192871    0.1000
     38 H38         1.5608    4.1114   45.3948 H       1  ZINC000437192871    0.1000
     39 H39         0.7920    2.6615   43.5363 H       1  ZINC000437192871    0.0600
     40 H40        -0.8979    3.0756   43.9118 H       1  ZINC000437192871    0.0500
     41 H41         0.0051    4.4814   42.2046 H       1  ZINC000437192871    0.3800
     42 H42         0.2482   -1.0443   45.5529 H       1  ZINC000437192871    0.1000
     43 H43        -1.4073   -1.6886   45.6648 H       1  ZINC000437192871    0.0900
     44 H44        -1.1363   -0.0262   45.0892 H       1  ZINC000437192871    0.0900
     45 H45         1.0667    1.9370   50.4718 H       1  ZINC000437192871    0.1600
     46 H46         0.9930    3.7744   52.1053 H       1  ZINC000437192871    0.1500
     47 H47        -3.2106    4.1786   51.4865 H       1  ZINC000437192871    0.1500
     48 H48         2.1368    4.3425   47.4888 H       1  ZINC000437192871    0.1800
@<TRIPOS>BOND
     1     1     2    1
     2     1    29    1
     3     1    30    1
     4     1    31    1
     5     2     3    1
     6     2    32    1
     7     2    33    1
     8     3    28    1
     9     3     4    1
    10     4     5    2
    11     4    34    1
    12     5     6    1
    13     5    27    1
    14     6     7    1
    15     6    35    1
    16     6    36    1
    17     7     8    1
    18     7    11   am
    19     8     9    1
    20     8    37    1
    21     8    38    1
    22     9    10    1
    23     9    39    1
    24     9    40    1
    25    10    41    1
    26    11    12    2
    27    11    13    1
    28    13    18    1
    29    13    14    2
    30    14    15    1
    31    14    16    1
    32    15    42    1
    33    15    43    1
    34    15    44    1
    35    16    17    1
    36    17    18    2
    37    18    19    1
    38    19    25   ar
    39    19    20   ar
    40    20    21   ar
    41    20    45    1
    42    21    22   ar
    43    21    46    1
    44    22    23    1
    45    22    24   ar
    46    24    25   ar
    47    24    47    1
    48    25    26    1
    49    27    28    2
    50    27    48    1
@<TRIPOS>SUBSTRUCTURE
     1 ZINC000437192871        1 TEMP              0 ****  ****    0 ROOT


##########                                Name:    ZINC000455156110
##########                DOCK_Rotatable_Bonds:                   4
##########                         Heavy_Atoms:                  27
##########                    Molecular_Weight:             370.424
##########                DOCK_Rotatable_Bonds:                   4
##########                       Formal_Charge:           0.0100002
##########                     HBond_Acceptors:                   6
##########                        HBond_Donors:                   1
##########                         Heavy_Atoms:                  27
##########                          Grid_Score:          -30.944321
##########                     Grid_vdw_energy:          -30.893114
##########                      Grid_es_energy:           -0.051207
##########           Internal_energy_repulsive:           46.064915

@<TRIPOS>MOLECULE
ZINC000455156110
 50 53 1 0 0
SMALL
USER_CHARGES


@<TRIPOS>ATOM
      1 C1        -10.3796    0.5694   52.9567 C.3     1  ZINC000455156110    0.0300
      2 O2         -9.8795    1.8035   52.4382 O.3     1  ZINC000455156110   -0.3100
      3 C3         -8.6386    1.7818   51.8813 C.ar    1  ZINC000455156110    0.0900
      4 C4         -8.0911    2.9451   51.3636 C.ar    1  ZINC000455156110   -0.1600
      5 C5         -6.8305    2.9241   50.7979 C.ar    1  ZINC000455156110   -0.0800
      6 C6         -6.2366    4.1895   50.2348 C.3     1  ZINC000455156110   -0.1100
      7 C7         -6.1112    1.7381   50.7483 C.ar    1  ZINC000455156110    0.1500
      8 N8         -4.8325    1.7175   50.1753 N.am    1  ZINC000455156110   -0.6700
      9 C9         -3.8007    2.3100   50.8084 C.2     1  ZINC000455156110    0.7200
     10 O10        -3.9793    2.8624   51.8768 O.2     1  ZINC000455156110   -0.5500
     11 N11        -2.5709    2.2902   50.2573 N.am    1  ZINC000455156110   -0.5600
     12 C12        -2.2339    1.6633   48.9751 C.3     1  ZINC000455156110    0.1000
     13 C13        -0.7313    1.9108   48.7945 C.3     1  ZINC000455156110   -0.0200
     14 C14         0.0182    0.5829   48.7141 C.3     1  ZINC000455156110   -0.1400
     15 C15        -0.3977   -0.1528   47.4364 C.3     1  ZINC000455156110    0.0600
     16 O16        -0.1429    0.6817   46.3046 O.3     1  ZINC000455156110   -0.3800
     17 C17        -0.8739    1.9098   46.3057 C.3     1  ZINC000455156110    0.0600
     18 C18        -0.4784    2.7350   47.5342 C.3     1  ZINC000455156110   -0.1400
     19 C19        -0.3119    2.6807   50.0215 C.ar    1  ZINC000455156110   -0.1300
     20 C20         0.9177    3.1765   50.4103 C.ar    1  ZINC000455156110   -0.0700
     21 C21         1.0452    3.8621   51.6042 C.ar    1  ZINC000455156110   -0.1400
     22 C22        -0.0619    4.0513   52.4106 C.ar    1  ZINC000455156110   -0.0900
     23 C23        -1.2910    3.5578   52.0276 C.ar    1  ZINC000455156110   -0.1300
     24 C24        -1.4295    2.8698   50.8214 C.ar    1  ZINC000455156110    0.1600
     25 C25        -6.6585    0.5722   51.2672 C.ar    1  ZINC000455156110   -0.1200
     26 C26        -7.9178    0.5948   51.8370 C.ar    1  ZINC000455156110    0.0900
     27 F27        -8.4512   -0.5389   52.3425 F       1  ZINC000455156110   -0.1300
     28 H28       -11.3756    0.7262   53.3707 H       1  ZINC000455156110    0.1000
     29 H29       -10.4313   -0.1672   52.1548 H       1  ZINC000455156110    0.0600
     30 H30        -9.7133    0.2077   53.7398 H       1  ZINC000455156110    0.0600
     31 H31        -8.6501    3.8684   51.4021 H       1  ZINC000455156110    0.1400
     32 H32        -5.6787    4.7075   51.0149 H       1  ZINC000455156110    0.0800
     33 H33        -5.5657    3.9413   49.4122 H       1  ZINC000455156110    0.0600
     34 H34        -7.0355    4.8349   49.8700 H       1  ZINC000455156110    0.0800
     35 H35        -4.6900    1.2768   49.3230 H       1  ZINC000455156110    0.4100
     36 H36        -2.4398    0.5935   49.0108 H       1  ZINC000455156110    0.0800
     37 H37        -2.7946    2.1309   48.1659 H       1  ZINC000455156110    0.0900
     38 H38         1.0916    0.7712   48.6929 H       1  ZINC000455156110    0.0800
     39 H39        -0.2283   -0.0277   49.5827 H       1  ZINC000455156110    0.0800
     40 H40         0.1759   -1.0750   47.3447 H       1  ZINC000455156110    0.1000
     41 H41        -1.4610   -0.3885   47.4824 H       1  ZINC000455156110    0.0500
     42 H42        -0.6429    2.4713   45.4006 H       1  ZINC000455156110    0.1000
     43 H43        -1.9425    1.6969   46.3393 H       1  ZINC000455156110    0.0500
     44 H44        -1.0759    3.6460   47.5688 H       1  ZINC000455156110    0.0800
     45 H45         0.5787    2.9938   47.4742 H       1  ZINC000455156110    0.0800
     46 H46         1.7818    3.0277   49.7800 H       1  ZINC000455156110    0.1300
     47 H47         2.0073    4.2485   51.9063 H       1  ZINC000455156110    0.1300
     48 H48         0.0365    4.5869   53.3432 H       1  ZINC000455156110    0.1300
     49 H49        -2.1519    3.7084   52.6622 H       1  ZINC000455156110    0.1400
     50 H50        -6.0993   -0.3509   51.2290 H       1  ZINC000455156110    0.1700
@<TRIPOS>BOND
     1     1     2    1
     2     1    28    1
     3     1    29    1
     4     1    30    1
     5     2     3    1
     6     3    26   ar
     7     3     4   ar
     8     4     5   ar
     9     4    31    1
    10     5     6    1
    11     5     7   ar
    12     6    32    1
    13     6    33    1
    14     6    34    1
    15     7     8    1
    16     7    25   ar
    17     8     9   am
    18     8    35    1
    19     9    10    2
    20     9    11   am
    21    11    24    1
    22    11    12    1
    23    12    13    1
    24    12    36    1
    25    12    37    1
    26    13    18    1
    27    13    14    1
    28    13    19    1
    29    14    15    1
    30    14    38    1
    31    14    39    1
    32    15    16    1
    33    15    40    1
    34    15    41    1
    35    16    17    1
    36    17    18    1
    37    17    42    1
    38    17    43    1
    39    18    44    1
    40    18    45    1
    41    19    24   ar
    42    19    20   ar
    43    20    21   ar
    44    20    46    1
    45    21    22   ar
    46    21    47    1
    47    22    23   ar
    48    22    48    1
    49    23    24   ar
    50    23    49    1
    51    25    26   ar
    52    25    50    1
    53    26    27    1
@<TRIPOS>SUBSTRUCTURE
     1 ZINC000455156110        1 TEMP              0 ****  ****    0 ROOT


##########                                Name:    ZINC001436455587
##########                DOCK_Rotatable_Bonds:                   9
##########                         Heavy_Atoms:                  21
##########                    Molecular_Weight:             378.693
##########                DOCK_Rotatable_Bonds:                   9
##########                       Formal_Charge:          -0.0200001
##########                     HBond_Acceptors:                   5
##########                        HBond_Donors:                   1
##########                         Heavy_Atoms:                  21
##########                          Grid_Score:          -30.935732
##########                     Grid_vdw_energy:          -30.205660
##########                      Grid_es_energy:           -0.730071
##########           Internal_energy_repulsive:           15.705590

@<TRIPOS>MOLECULE
ZINC001436455587
 42 42 1 0 0
SMALL
USER_CHARGES


@<TRIPOS>ATOM
      1 C1         -6.7427    3.7483   54.3567 C.3     1  ZINC001436455587   -0.1500
      2 C2         -7.0526    4.1794   52.9219 C.3     1  ZINC001436455587   -0.1300
      3 C3         -7.8639    3.0854   52.2247 C.3     1  ZINC001436455587   -0.1400
      4 C4         -6.9363    1.9331   51.8341 C.3     1  ZINC001436455587    0.0800
      5 H5         -6.1845    1.7926   52.6110 H       1  ZINC001436455587    0.0700
      6 C6         -6.2452    2.2612   50.5091 C.3     1  ZINC001436455587    0.1200
      7 N7         -4.8747    1.7442   50.5320 N.am    1  ZINC001436455587   -0.7200
      8 C8         -4.0048    2.0980   49.5652 C.2     1  ZINC001436455587    0.5200
      9 O9         -4.3562    2.8456   48.6773 O.2     1  ZINC001436455587   -0.5100
     10 C10        -2.5954    1.5647   49.5877 C.3     1  ZINC001436455587    0.0600
     11 H11        -2.5357    0.7251   50.2802 H       1  ZINC001436455587    0.1000
     12 C12        -1.6394    2.6694   50.0420 C.3     1  ZINC001436455587   -0.1800
     13 O13        -2.2304    1.1281   48.2770 O.3     1  ZINC001436455587   -0.2700
     14 C14        -0.9362    0.7576   48.0880 C.ar    1  ZINC001436455587    0.1600
     15 C15        -0.3846   -0.2553   48.8577 C.ar    1  ZINC001436455587   -0.2000
     16 C16         0.9311   -0.6310   48.6639 C.ar    1  ZINC001436455587   -0.0500
     17 C17         1.6983    0.0028   47.7030 C.ar    1  ZINC001436455587   -0.0700
     18 Cl18        3.3510   -0.4709   47.4622 Cl      1  ZINC001436455587   -0.0600
     19 C19         1.1501    1.0137   46.9331 C.ar    1  ZINC001436455587   -0.0400
     20 C20        -0.1668    1.3888   47.1201 C.ar    1  ZINC001436455587   -0.1200
     21 Br21       -0.9158    2.7701   46.0681 Br      1  ZINC001436455587   -0.0100
     22 O22        -7.7006    0.7345   51.6887 O.3     1  ZINC001436455587   -0.3800
     23 C23        -6.9681   -0.3578   51.1297 C.3     1  ZINC001436455587    0.0200
     24 H24        -7.6755    3.5874   54.8973 H       1  ZINC001436455587    0.0500
     25 H25        -6.1672    2.8227   54.3419 H       1  ZINC001436455587    0.0600
     26 H26        -6.1647    4.5276   54.8535 H       1  ZINC001436455587    0.0600
     27 H27        -7.6282    5.1049   52.9367 H       1  ZINC001436455587    0.0600
     28 H28        -6.1198    4.3402   52.3813 H       1  ZINC001436455587    0.0700
     29 H29        -8.6349    2.7176   52.9016 H       1  ZINC001436455587    0.0800
     30 H30        -8.3316    3.4948   51.3293 H       1  ZINC001436455587    0.0800
     31 H31        -6.7943    1.7989   49.6887 H       1  ZINC001436455587    0.0800
     32 H32        -6.2236    3.3419   50.3684 H       1  ZINC001436455587    0.0800
     33 H33        -4.5933    1.1471   51.2428 H       1  ZINC001436455587    0.4000
     34 H34        -0.6200    2.2837   50.0582 H       1  ZINC001436455587    0.0800
     35 H35        -1.6990    3.5091   49.3496 H       1  ZINC001436455587    0.0800
     36 H36        -1.9178    3.0025   51.0418 H       1  ZINC001436455587    0.0800
     37 H37        -0.9827   -0.7501   49.6086 H       1  ZINC001436455587    0.1500
     38 H38         1.3608   -1.4198   49.2634 H       1  ZINC001436455587    0.1400
     39 H39         1.7506    1.5071   46.1832 H       1  ZINC001436455587    0.1500
     40 H40        -6.1730   -0.6508   51.8152 H       1  ZINC001436455587    0.0500
     41 H41        -7.6395   -1.2016   50.9699 H       1  ZINC001436455587    0.0900
     42 H42        -6.5333   -0.0541   50.1774 H       1  ZINC001436455587    0.0400
@<TRIPOS>BOND
     1     1     2    1
     2     1    24    1
     3     1    25    1
     4     1    26    1
     5     2     3    1
     6     2    27    1
     7     2    28    1
     8     3     4    1
     9     3    29    1
    10     3    30    1
    11     4     5    1
    12     4     6    1
    13     4    22    1
    14     6     7    1
    15     6    31    1
    16     6    32    1
    17     7     8   am
    18     7    33    1
    19     8     9    2
    20     8    10    1
    21    10    11    1
    22    10    12    1
    23    10    13    1
    24    12    34    1
    25    12    35    1
    26    12    36    1
    27    13    14    1
    28    14    20   ar
    29    14    15   ar
    30    15    16   ar
    31    15    37    1
    32    16    17   ar
    33    16    38    1
    34    17    18    1
    35    17    19   ar
    36    19    20   ar
    37    19    39    1
    38    20    21    1
    39    22    23    1
    40    23    40    1
    41    23    41    1
    42    23    42    1
@<TRIPOS>SUBSTRUCTURE
     1 ZINC001436455587        1 TEMP              0 ****  ****    0 ROOT


##########                                Name:    ZINC001342629575
##########                DOCK_Rotatable_Bonds:                   9
##########                         Heavy_Atoms:                  29
##########                    Molecular_Weight:             396.533
##########                DOCK_Rotatable_Bonds:                   9
##########                       Formal_Charge:         -0.00999976
##########                     HBond_Acceptors:                   6
##########                        HBond_Donors:                   0
##########                         Heavy_Atoms:                  29
##########                          Grid_Score:          -30.932308
##########                     Grid_vdw_energy:          -30.493422
##########                      Grid_es_energy:           -0.438887
##########           Internal_energy_repulsive:           20.655153

@<TRIPOS>MOLECULE
ZINC001342629575
 61 64 1 0 0
SMALL
USER_CHARGES


@<TRIPOS>ATOM
      1 C1        -14.0533    0.8335   51.9980 C.2     1  ZINC001342629575   -0.1800
      2 C2        -13.2255   -0.0829   52.4350 C.2     1  ZINC001342629575   -0.1600
      3 C3        -11.8108   -0.1288   51.9177 C.3     1  ZINC001342629575   -0.0800
      4 C4        -10.8708    0.5016   52.9471 C.3     1  ZINC001342629575    0.0500
      5 H5        -11.1642    1.5369   53.1211 H       1  ZINC001342629575    0.0900
      6 C6        -10.9530   -0.2679   54.2401 C.2     1  ZINC001342629575    0.2000
      7 N7        -10.9342   -1.5643   54.3698 N.2     1  ZINC001342629575   -0.2700
      8 N8        -11.0225   -1.8844   55.6115 N.2     1  ZINC001342629575   -0.3000
      9 C9        -11.1031   -0.8004   56.3466 C.2     1  ZINC001342629575    0.3400
     10 N10       -11.2104   -0.7475   57.7273 N.3     1  ZINC001342629575   -0.4300
     11 C11        -9.8782   -0.5619   58.3580 C.3     1  ZINC001342629575    0.0400
     12 C12       -10.0633   -1.0534   59.8097 C.3     1  ZINC001342629575   -0.1200
     13 C13       -11.2591   -2.0263   59.7542 C.3     1  ZINC001342629575   -0.1200
     14 C14       -11.6959   -2.0410   58.2735 C.3     1  ZINC001342629575    0.0700
     15 H15       -11.2299   -2.8745   57.7479 H       1  ZINC001342629575    0.0900
     16 C16       -13.2196   -2.1295   58.1675 C.3     1  ZINC001342629575    0.1000
     17 H17       -13.6475   -2.3293   59.1499 H       1  ZINC001342629575    0.0700
     18 C18       -13.6119   -3.2551   57.1866 C.3     1  ZINC001342629575   -0.1400
     19 C19       -14.8201   -2.6319   56.4358 C.3     1  ZINC001342629575   -0.1600
     20 C20       -14.4036   -1.1399   56.3956 C.3     1  ZINC001342629575    0.0500
     21 O21       -13.7429   -0.9004   57.6505 O.3     1  ZINC001342629575   -0.3700
     22 N22       -11.0553    0.2649   55.4953 N.pl3   1  ZINC001342629575   -0.4600
     23 C23       -11.1119    1.6848   55.8514 C.3     1  ZINC001342629575    0.1100
     24 C24       -12.5263    2.2154   55.6089 C.3     1  ZINC001342629575    0.0500
     25 O25       -12.6435    3.5286   56.1602 O.3     1  ZINC001342629575   -0.3800
     26 C26       -13.9104    4.1465   55.9255 C.3     1  ZINC001342629575    0.0300
     27 C27        -9.4568    0.4609   52.4274 C.ar    1  ZINC001342629575   -0.0900
     28 C28        -8.9049   -0.7388   52.0186 C.ar    1  ZINC001342629575   -0.0900
     29 C29        -7.6079   -0.7762   51.5419 C.ar    1  ZINC001342629575   -0.1200
     30 C30        -6.8629    0.3863   51.4735 C.ar    1  ZINC001342629575   -0.1200
     31 C31        -7.4151    1.5861   51.8814 C.ar    1  ZINC001342629575   -0.1200
     32 C32        -8.7135    1.6241   52.3541 C.ar    1  ZINC001342629575   -0.1100
     33 H33       -15.0672    0.8664   52.3687 H       1  ZINC001342629575    0.1000
     34 H34       -13.7207    1.5590   51.2704 H       1  ZINC001342629575    0.1000
     35 H35       -13.5569   -0.8057   53.1658 H       1  ZINC001342629575    0.1000
     36 H36       -11.5199   -1.1652   51.7468 H       1  ZINC001342629575    0.0900
     37 H37       -11.7483    0.4253   50.9812 H       1  ZINC001342629575    0.0800
     38 H38        -9.1278   -1.1640   57.8457 H       1  ZINC001342629575    0.0600
     39 H39        -9.5953    0.4906   58.3461 H       1  ZINC001342629575    0.0800
     40 H40        -9.1680   -1.5731   60.1506 H       1  ZINC001342629575    0.0800
     41 H41       -10.2885   -0.2142   60.4678 H       1  ZINC001342629575    0.0800
     42 H42       -10.9507   -3.0237   60.0677 H       1  ZINC001342629575    0.0800
     43 H43       -12.0711   -1.6646   60.3849 H       1  ZINC001342629575    0.0800
     44 H44       -12.7958   -3.4705   56.4968 H       1  ZINC001342629575    0.0900
     45 H45       -13.9121   -4.1531   57.7265 H       1  ZINC001342629575    0.0800
     46 H46       -14.9113   -3.0414   55.4298 H       1  ZINC001342629575    0.0800
     47 H47       -15.7442   -2.7667   56.9981 H       1  ZINC001342629575    0.0800
     48 H48       -13.7190   -0.9604   55.5666 H       1  ZINC001342629575    0.0600
     49 H49       -15.2839   -0.5036   56.3050 H       1  ZINC001342629575    0.0900
     50 H50       -10.8536    1.8063   56.9034 H       1  ZINC001342629575    0.1000
     51 H51       -10.4045    2.2419   55.2370 H       1  ZINC001342629575    0.1100
     52 H52       -12.7216    2.2526   54.5372 H       1  ZINC001342629575    0.0600
     53 H53       -13.2492    1.5546   56.0873 H       1  ZINC001342629575    0.0600
     54 H54       -13.9192    5.1395   56.3750 H       1  ZINC001342629575    0.0900
     55 H55       -14.0798    4.2320   54.8522 H       1  ZINC001342629575    0.0400
     56 H56       -14.6988    3.5394   56.3705 H       1  ZINC001342629575    0.0400
     57 H57        -9.4869   -1.6469   52.0721 H       1  ZINC001342629575    0.1300
     58 H58        -7.1766   -1.7135   51.2232 H       1  ZINC001342629575    0.1200
     59 H59        -5.8494    0.3570   51.1017 H       1  ZINC001342629575    0.1200
     60 H60        -6.8329    2.4942   51.8283 H       1  ZINC001342629575    0.1200
     61 H61        -9.1449    2.5616   52.6728 H       1  ZINC001342629575    0.1200
@<TRIPOS>BOND
     1     1     2    2
     2     1    33    1
     3     1    34    1
     4     2     3    1
     5     2    35    1
     6     3     4    1
     7     3    36    1
     8     3    37    1
     9     4     5    1
    10     4     6    1
    11     4    27    1
    12     6    22    1
    13     6     7    2
    14     7     8    1
    15     8     9    2
    16     9    10    1
    17     9    22    1
    18    10    14    1
    19    10    11    1
    20    11    12    1
    21    11    38    1
    22    11    39    1
    23    12    13    1
    24    12    40    1
    25    12    41    1
    26    13    14    1
    27    13    42    1
    28    13    43    1
    29    14    15    1
    30    14    16    1
    31    16    17    1
    32    16    21    1
    33    16    18    1
    34    18    19    1
    35    18    44    1
    36    18    45    1
    37    19    20    1
    38    19    46    1
    39    19    47    1
    40    20    21    1
    41    20    48    1
    42    20    49    1
    43    22    23    1
    44    23    24    1
    45    23    50    1
    46    23    51    1
    47    24    25    1
    48    24    52    1
    49    24    53    1
    50    25    26    1
    51    26    54    1
    52    26    55    1
    53    26    56    1
    54    27    32   ar
    55    27    28   ar
    56    28    29   ar
    57    28    57    1
    58    29    30   ar
    59    29    58    1
    60    30    31   ar
    61    30    59    1
    62    31    32   ar
    63    31    60    1
    64    32    61    1
@<TRIPOS>SUBSTRUCTURE
     1 ZINC001342629575        1 TEMP              0 ****  ****    0 ROOT


##########                                Name:    ZINC000188380122
##########                DOCK_Rotatable_Bonds:                   6
##########                         Heavy_Atoms:                  27
##########                    Molecular_Weight:             396.433
##########                DOCK_Rotatable_Bonds:                   6
##########                       Formal_Charge:           0.0299998
##########                     HBond_Acceptors:                   8
##########                        HBond_Donors:                   1
##########                         Heavy_Atoms:                  27
##########                          Grid_Score:          -30.918472
##########                     Grid_vdw_energy:          -31.852398
##########                      Grid_es_energy:            0.933926
##########           Internal_energy_repulsive:           13.626183

@<TRIPOS>MOLECULE
ZINC000188380122
 46 49 1 0 0
SMALL
USER_CHARGES


@<TRIPOS>ATOM
      1 O1         -2.6148    0.5498   49.9778 O.2     1  ZINC000188380122   -0.5200
      2 C2         -2.1851    1.4417   49.2773 C.2     1  ZINC000188380122    0.5200
      3 C3         -2.6161    2.8651   49.5207 C.3     1  ZINC000188380122   -0.0700
      4 C4         -3.6783    2.8926   50.5893 C.2     1  ZINC000188380122    0.0900
      5 C5         -3.6720    3.7974   51.5740 C.2     1  ZINC000188380122   -0.2400
      6 S6         -5.0670    3.4962   52.6082 S.3     1  ZINC000188380122    0.1000
      7 C7         -5.5309    2.1429   51.5798 C.2     1  ZINC000188380122    0.1100
      8 C8         -6.7108    1.2754   51.7837 C.ar    1  ZINC000188380122   -0.0200
      9 C9         -6.6741   -0.0618   51.3869 C.ar    1  ZINC000188380122   -0.0400
     10 C10        -7.7784   -0.8662   51.5803 C.ar    1  ZINC000188380122   -0.1200
     11 C11        -8.9204   -0.3495   52.1657 C.ar    1  ZINC000188380122   -0.0600
     12 C12        -8.9631    0.9759   52.5613 C.ar    1  ZINC000188380122   -0.1800
     13 C13       -10.2112    1.5303   53.1987 C.3     1  ZINC000188380122    0.5100
     14 F14       -10.3287    2.8895   52.8890 F       1  ZINC000188380122   -0.1700
     15 F15       -11.3282    0.8427   52.7122 F       1  ZINC000188380122   -0.1700
     16 F16       -10.1350    1.3731   54.5868 F       1  ZINC000188380122   -0.1700
     17 C17        -7.8640    1.7891   52.3788 C.ar    1  ZINC000188380122   -0.0500
     18 N18        -4.6707    2.0329   50.6083 N.2     1  ZINC000188380122   -0.4300
     19 N19        -1.3177    1.1607   48.2847 N.am    1  ZINC000188380122   -0.7200
     20 C20        -0.8988   -0.2230   48.0481 C.3     1  ZINC000188380122    0.1300
     21 H21        -1.7398   -0.9059   47.9288 H       1  ZINC000188380122    0.1200
     22 C22         0.1669   -0.7234   49.0393 C.3     1  ZINC000188380122   -0.1800
     23 C23         0.8121   -1.4323   47.8427 C.3     1  ZINC000188380122    0.0900
     24 H24         0.3737   -2.4156   47.6720 H       1  ZINC000188380122    0.1200
     25 O25         2.2162   -1.4913   47.8607 O.3     1  ZINC000188380122   -0.3700
     26 C26         2.9659   -0.2999   47.7112 C.3     1  ZINC000188380122    0.0700
     27 C27         2.4483    0.5257   46.5343 C.3     1  ZINC000188380122   -0.1600
     28 C28         0.9904    0.9076   46.8084 C.3     1  ZINC000188380122   -0.1100
     29 C29         0.1741   -0.3651   46.9493 C.3     1  ZINC000188380122   -0.1500
     30 H30        -0.2047   -0.7427   45.9995 H       1  ZINC000188380122    0.0900
     31 H31        -1.7583    3.4540   49.8459 H       1  ZINC000188380122    0.1100
     32 H32        -3.0173    3.2861   48.5988 H       1  ZINC000188380122    0.1100
     33 H33        -2.9383    4.5778   51.7118 H       1  ZINC000188380122    0.1800
     34 H34        -5.7835   -0.4662   50.9291 H       1  ZINC000188380122    0.1500
     35 H35        -7.7514   -1.9014   51.2738 H       1  ZINC000188380122    0.1400
     36 H36        -9.7823   -0.9830   52.3142 H       1  ZINC000188380122    0.1500
     37 H37        -7.8986    2.8233   52.6881 H       1  ZINC000188380122    0.1400
     38 H38        -0.9710    1.8746   47.7270 H       1  ZINC000188380122    0.4000
     39 H39         0.7814    0.0722   49.4609 H       1  ZINC000188380122    0.0900
     40 H40        -0.2232   -1.4056   49.7947 H       1  ZINC000188380122    0.0800
     41 H41         2.8876    0.2898   48.6245 H       1  ZINC000188380122    0.0500
     42 H42         4.0117   -0.5540   47.5382 H       1  ZINC000188380122    0.1000
     43 H43         3.0495    1.4289   46.4286 H       1  ZINC000188380122    0.0800
     44 H44         2.5062   -0.0644   45.6197 H       1  ZINC000188380122    0.0800
     45 H45         0.9312    1.4843   47.7315 H       1  ZINC000188380122    0.0700
     46 H46         0.6059    1.5011   45.9791 H       1  ZINC000188380122    0.0800
@<TRIPOS>BOND
     1     1     2    2
     2     2     3    1
     3     2    19   am
     4     3     4    1
     5     3    31    1
     6     3    32    1
     7     4    18    1
     8     4     5    2
     9     5     6    1
    10     5    33    1
    11     6     7    1
    12     7     8    1
    13     7    18    2
    14     8    17   ar
    15     8     9   ar
    16     9    10   ar
    17     9    34    1
    18    10    11   ar
    19    10    35    1
    20    11    12   ar
    21    11    36    1
    22    12    13    1
    23    12    17   ar
    24    13    14    1
    25    13    15    1
    26    13    16    1
    27    17    37    1
    28    19    20    1
    29    19    38    1
    30    20    21    1
    31    20    29    1
    32    20    22    1
    33    22    23    1
    34    22    39    1
    35    22    40    1
    36    23    24    1
    37    23    29    1
    38    23    25    1
    39    25    26    1
    40    26    27    1
    41    26    41    1
    42    26    42    1
    43    27    28    1
    44    27    43    1
    45    27    44    1
    46    28    29    1
    47    28    45    1
    48    28    46    1
    49    29    30    1
@<TRIPOS>SUBSTRUCTURE
     1 ZINC000188380122        1 TEMP              0 ****  ****    0 ROOT


##########                                Name:    ZINC001083519372
##########                DOCK_Rotatable_Bonds:                   7
##########                         Heavy_Atoms:                  27
##########                    Molecular_Weight:             370.411
##########                DOCK_Rotatable_Bonds:                   7
##########                       Formal_Charge:           0.0399996
##########                     HBond_Acceptors:                   9
##########                        HBond_Donors:                   2
##########                         Heavy_Atoms:                  27
##########                          Grid_Score:          -30.900120
##########                     Grid_vdw_energy:          -27.949497
##########                      Grid_es_energy:           -2.950623
##########           Internal_energy_repulsive:           10.732384

@<TRIPOS>MOLECULE
ZINC001083519372
 49 52 1 0 0
SMALL
USER_CHARGES


@<TRIPOS>ATOM
      1 C1         -7.3182    0.6338   51.8101 C.3     1  ZINC001083519372   -0.1500
      2 C2         -7.1909    1.9748   52.5356 C.3     1  ZINC001083519372   -0.0100
      3 C3         -5.7297    2.4281   52.5167 C.3     1  ZINC001083519372   -0.1500
      4 C4         -8.0453    3.0043   51.8420 C.2     1  ZINC001083519372   -0.0100
      5 C5         -9.3014    3.3502   52.1689 C.2     1  ZINC001083519372   -0.0100
      6 C6        -10.1157    2.7773   53.3002 C.3     1  ZINC001083519372    0.1300
      7 N7        -10.2868    1.3324   53.0975 N.3     1  ZINC001083519372   -0.5000
      8 C8        -10.7897    0.6777   54.3323 C.3     1  ZINC001083519372    0.0300
      9 C9        -11.3942   -0.6493   53.8088 C.3     1  ZINC001083519372    0.1500
     10 H10       -10.6132   -1.3932   53.6507 H       1  ZINC001083519372    0.1200
     11 N11       -12.4107   -1.1564   54.7338 N.am    1  ZINC001083519372   -0.6900
     12 C12       -12.0409   -1.6917   55.9141 C.2     1  ZINC001083519372    0.5600
     13 O13       -10.8636   -1.7525   56.2119 O.2     1  ZINC001083519372   -0.5100
     14 C14       -13.0643   -2.2039   56.8448 C.2     1  ZINC001083519372    0.1400
     15 C15       -14.2829   -2.6201   56.3805 C.2     1  ZINC001083519372   -0.1500
     16 C16       -15.2342   -3.1016   57.2899 C.2     1  ZINC001083519372    0.1800
     17 N17       -14.9620   -3.1537   58.5717 N.2     1  ZINC001083519372   -0.4400
     18 C18       -13.7778   -2.7520   59.0448 C.2     1  ZINC001083519372    0.2500
     19 C19       -13.2456   -2.7026   60.3287 C.2     1  ZINC001083519372   -0.2500
     20 C20       -11.9619   -2.1916   60.2323 C.2     1  ZINC001083519372    0.1000
     21 N21       -11.6966   -1.9336   58.9702 N.2     1  ZINC001083519372   -0.3100
     22 N22       -12.8094   -2.2773   58.1952 N.pl3   1  ZINC001083519372   -0.3100
     23 C23       -12.0323   -0.2318   52.4639 C.3     1  ZINC001083519372    0.0900
     24 H24       -11.8773   -1.0080   51.7145 H       1  ZINC001083519372    0.0800
     25 O25       -13.4285    0.0200   52.6345 O.3     1  ZINC001083519372   -0.5600
     26 C26       -11.3001    1.0597   52.0552 C.3     1  ZINC001083519372    0.0100
     27 N27        -9.7013    4.2999   51.3048 N.2     1  ZINC001083519372   -0.4800
     28 C28        -8.7315    4.5389   50.4687 C.2     1  ZINC001083519372    0.1700
     29 O29        -7.6907    3.7552   50.7807 O.3     1  ZINC001083519372   -0.2000
     30 H30        -8.3592    0.3108   51.8235 H       1  ZINC001083519372    0.0600
     31 H31        -6.9859    0.7461   50.7780 H       1  ZINC001083519372    0.0600
     32 H32        -6.7003   -0.1108   52.3118 H       1  ZINC001083519372    0.0700
     33 H33        -7.5232    1.8626   53.5676 H       1  ZINC001083519372    0.1000
     34 H34        -5.3974    2.5404   51.4848 H       1  ZINC001083519372    0.0600
     35 H35        -5.6390    3.3835   53.0336 H       1  ZINC001083519372    0.0600
     36 H36        -5.1117    1.6835   53.0185 H       1  ZINC001083519372    0.0700
     37 H37        -9.6003    2.9533   54.2443 H       1  ZINC001083519372    0.0900
     38 H38       -11.0932    3.2591   53.3244 H       1  ZINC001083519372    0.0600
     39 H39        -9.9708    0.4809   55.0242 H       1  ZINC001083519372    0.1000
     40 H40       -11.5571    1.2892   54.8068 H       1  ZINC001083519372    0.0600
     41 H41       -13.3501   -1.1069   54.4969 H       1  ZINC001083519372    0.4300
     42 H42       -14.5088   -2.5775   55.3253 H       1  ZINC001083519372    0.1800
     43 H43       -16.1985   -3.4317   56.9326 H       1  ZINC001083519372    0.1900
     44 H44       -13.7437   -3.0074   61.2372 H       1  ZINC001083519372    0.1700
     45 H45       -11.2875   -2.0308   61.0603 H       1  ZINC001083519372    0.2000
     46 H46       -13.8881    0.2572   51.8173 H       1  ZINC001083519372    0.3900
     47 H47       -12.0082    1.8865   52.0003 H       1  ZINC001083519372    0.0700
     48 H48       -10.8121    0.9205   51.0905 H       1  ZINC001083519372    0.0900
     49 H49        -8.7603    5.2541   49.6600 H       1  ZINC001083519372    0.2500
@<TRIPOS>BOND
     1     1     2    1
     2     1    30    1
     3     1    31    1
     4     1    32    1
     5     2     3    1
     6     2     4    1
     7     2    33    1
     8     3    34    1
     9     3    35    1
    10     3    36    1
    11     4    29    1
    12     4     5    2
    13     5     6    1
    14     5    27    1
    15     6     7    1
    16     6    37    1
    17     6    38    1
    18     7    26    1
    19     7     8    1
    20     8     9    1
    21     8    39    1
    22     8    40    1
    23     9    10    1
    24     9    11    1
    25     9    23    1
    26    11    12   am
    27    11    41    1
    28    12    13    2
    29    12    14    1
    30    14    22    1
    31    14    15    2
    32    15    16    1
    33    15    42    1
    34    16    17    2
    35    16    43    1
    36    17    18    1
    37    18    22    1
    38    18    19    2
    39    19    20    1
    40    19    44    1
    41    20    21    2
    42    20    45    1
    43    21    22    1
    44    23    24    1
    45    23    25    1
    46    23    26    1
    47    25    46    1
    48    26    47    1
    49    26    48    1
    50    27    28    2
    51    28    29    1
    52    28    49    1
@<TRIPOS>SUBSTRUCTURE
     1 ZINC001083519372        1 TEMP              0 ****  ****    0 ROOT


##########                                Name:    ZINC000191003171
##########                DOCK_Rotatable_Bonds:                   6
##########                         Heavy_Atoms:                  26
##########                    Molecular_Weight:             389.414
##########                DOCK_Rotatable_Bonds:                   6
##########                       Formal_Charge:          -0.0200002
##########                     HBond_Acceptors:                   8
##########                        HBond_Donors:                   1
##########                         Heavy_Atoms:                  26
##########                          Grid_Score:          -30.896538
##########                     Grid_vdw_energy:          -30.383520
##########                      Grid_es_energy:           -0.513018
##########           Internal_energy_repulsive:           19.183319

@<TRIPOS>MOLECULE
ZINC000191003171
 45 46 1 0 0
SMALL
USER_CHARGES


@<TRIPOS>ATOM
      1 C1         -7.3440    3.8241   53.6302 C.3     1  ZINC000191003171   -0.1200
      2 C2         -7.4703    2.4861   52.9481 C.ar    1  ZINC000191003171   -0.0800
      3 C3         -8.6693    1.7999   52.9893 C.ar    1  ZINC000191003171   -0.0700
      4 C4         -8.7851    0.5724   52.3636 C.ar    1  ZINC000191003171   -0.1800
      5 C5        -10.0923   -0.1760   52.4088 C.3     1  ZINC000191003171    0.5100
      6 F6        -10.1140   -1.0093   53.5323 F       1  ZINC000191003171   -0.1800
      7 F7        -11.1498    0.7368   52.4847 F       1  ZINC000191003171   -0.1800
      8 F8        -10.2267   -0.9502   51.2512 F       1  ZINC000191003171   -0.1800
      9 C9         -7.7021    0.0320   51.6962 C.ar    1  ZINC000191003171   -0.0800
     10 C10        -6.5028    0.7187   51.6547 C.ar    1  ZINC000191003171   -0.1000
     11 C11        -6.3883    1.9478   52.2766 C.ar    1  ZINC000191003171   -0.0500
     12 C12        -5.0811    2.6962   52.2313 C.3     1  ZINC000191003171    0.0900
     13 N13        -4.1263    1.9636   51.3890 N.3     1  ZINC000191003171   -0.6800
     14 C14        -3.7758    2.7405   50.1925 C.3     1  ZINC000191003171    0.1200
     15 H15        -3.4011    3.7193   50.4917 H       1  ZINC000191003171    0.0600
     16 C16        -5.0178    2.9159   49.3164 C.3     1  ZINC000191003171   -0.1400
     17 C17        -2.7110    2.0114   49.4143 C.ar    1  ZINC000191003171   -0.0100
     18 C18        -1.8130    2.7216   48.6397 C.ar    1  ZINC000191003171   -0.1300
     19 C19        -0.8356    2.0540   47.9252 C.ar    1  ZINC000191003171    0.0100
     20 C20        -0.7553    0.6759   47.9845 C.ar    1  ZINC000191003171   -0.7000
     21 S21         0.4905   -0.1745   47.0738 S.o2    1  ZINC000191003171    2.5000
     22 C22         1.6947   -0.6915   48.3281 C.3     1  ZINC000191003171   -0.6500
     23 O23        -0.1808   -1.3034   46.5317 O.2     1  ZINC000191003171   -0.9300
     24 O24         1.0481    0.8220   46.2281 O.2     1  ZINC000191003171   -0.9300
     25 C25        -1.6540   -0.0366   48.7606 C.ar    1  ZINC000191003171    0.1900
     26 F26        -1.5765   -1.3842   48.8195 F       1  ZINC000191003171   -0.1200
     27 C27        -2.6291    0.6332   49.4797 C.ar    1  ZINC000191003171   -0.1700
     28 H28        -7.6162    4.6152   52.9315 H       1  ZINC000191003171    0.0800
     29 H29        -8.0096    3.8564   54.4928 H       1  ZINC000191003171    0.0800
     30 H30        -6.3150    3.9683   53.9595 H       1  ZINC000191003171    0.0600
     31 H31        -9.5156    2.2224   53.5104 H       1  ZINC000191003171    0.1400
     32 H32        -7.7925   -0.9268   51.2075 H       1  ZINC000191003171    0.1400
     33 H33        -5.6565    0.2963   51.1335 H       1  ZINC000191003171    0.1400
     34 H34        -5.2455    3.6898   51.8145 H       1  ZINC000191003171    0.0900
     35 H35        -4.6796    2.7875   53.2406 H       1  ZINC000191003171    0.0500
     36 H36        -3.3006    1.7131   51.9121 H       1  ZINC000191003171    0.3500
     37 H37        -4.7578    3.4923   48.4286 H       1  ZINC000191003171    0.0600
     38 H38        -5.3925    1.9370   49.0171 H       1  ZINC000191003171    0.0700
     39 H39        -5.7880    3.4432   49.8793 H       1  ZINC000191003171    0.0600
     40 H40        -1.8752    3.7988   48.5924 H       1  ZINC000191003171    0.1500
     41 H41        -0.1347    2.6099   47.3200 H       1  ZINC000191003171    0.1600
     42 H42         1.2065   -1.3415   49.0543 H       1  ZINC000191003171    0.1300
     43 H43         2.5104   -1.2319   47.8477 H       1  ZINC000191003171    0.1400
     44 H44         2.0907    0.1879   48.8359 H       1  ZINC000191003171    0.1300
     45 H45        -3.3302    0.0786   50.0856 H       1  ZINC000191003171    0.1500
@<TRIPOS>BOND
     1     1     2    1
     2     1    28    1
     3     1    29    1
     4     1    30    1
     5     2    11   ar
     6     2     3   ar
     7     3     4   ar
     8     3    31    1
     9     4     5    1
    10     4     9   ar
    11     5     6    1
    12     5     7    1
    13     5     8    1
    14     9    10   ar
    15     9    32    1
    16    10    11   ar
    17    10    33    1
    18    11    12    1
    19    12    13    1
    20    12    34    1
    21    12    35    1
    22    13    14    1
    23    13    36    1
    24    14    15    1
    25    14    16    1
    26    14    17    1
    27    16    37    1
    28    16    38    1
    29    16    39    1
    30    17    27   ar
    31    17    18   ar
    32    18    19   ar
    33    18    40    1
    34    19    20   ar
    35    19    41    1
    36    20    21    1
    37    20    25   ar
    38    21    22    1
    39    21    23    2
    40    21    24    2
    41    22    42    1
    42    22    43    1
    43    22    44    1
    44    25    26    1
    45    25    27   ar
    46    27    45    1
@<TRIPOS>SUBSTRUCTURE
     1 ZINC000191003171        1 TEMP              0 ****  ****    0 ROOT


##########                                Name:    ZINC000375477402
##########                DOCK_Rotatable_Bonds:                   5
##########                         Heavy_Atoms:                  26
##########                    Molecular_Weight:             378.342
##########                DOCK_Rotatable_Bonds:                   5
##########                       Formal_Charge:         -1.2666e-07
##########                     HBond_Acceptors:                   9
##########                        HBond_Donors:                   1
##########                         Heavy_Atoms:                  26
##########                          Grid_Score:          -30.888624
##########                     Grid_vdw_energy:          -28.935003
##########                      Grid_es_energy:           -1.953621
##########           Internal_energy_repulsive:            6.181151

@<TRIPOS>MOLECULE
ZINC000375477402
 45 47 1 0 0
SMALL
USER_CHARGES


@<TRIPOS>ATOM
      1 O1         -2.5347    3.6327   51.5919 O.2     1  ZINC000375477402   -0.5600
      2 C2         -2.6680    2.6456   50.8946 C.2     1  ZINC000375477402    0.7200
      3 N3         -3.8401    1.9803   50.8852 N.am    1  ZINC000375477402   -0.7300
      4 C4         -4.9517    2.4431   51.7198 C.3     1  ZINC000375477402    0.1800
      5 H5         -4.5709    2.7535   52.6928 H       1  ZINC000375477402    0.1500
      6 C6         -5.6304    3.6103   51.0504 C.ar    1  ZINC000375477402   -0.1300
      7 C7         -5.8705    3.5824   49.6895 C.ar    1  ZINC000375477402   -0.0800
      8 C8         -6.4930    4.6524   49.0738 C.ar    1  ZINC000375477402   -0.0900
      9 C9         -6.8764    5.7523   49.8179 C.ar    1  ZINC000375477402   -0.1100
     10 C10        -6.6374    5.7833   51.1808 C.ar    1  ZINC000375477402    0.0800
     11 F11        -7.0119    6.8579   51.9088 F       1  ZINC000375477402   -0.1200
     12 C12        -6.0183    4.7077   51.7992 C.ar    1  ZINC000375477402    0.1000
     13 F13        -5.7839    4.7357   53.1294 F       1  ZINC000375477402   -0.1100
     14 C14        -5.9581    1.3058   51.9051 C.3     1  ZINC000375477402    0.4400
     15 F15        -7.1941    1.8351   52.2916 F       1  ZINC000375477402   -0.1600
     16 F16        -6.1046    0.6115   50.6994 F       1  ZINC000375477402   -0.1700
     17 F17        -5.4959    0.4306   52.8940 F       1  ZINC000375477402   -0.1800
     18 N18        -1.6453    2.2199   50.1269 N.am    1  ZINC000375477402   -0.6300
     19 C19        -0.3148    2.8503   50.0401 C.3     1  ZINC000375477402    0.1000
     20 C20         0.6338    1.7168   49.5723 C.3     1  ZINC000375477402   -0.1200
     21 C21        -0.2768    0.9338   48.6003 C.3     1  ZINC000375477402   -0.1100
     22 C22        -1.6687    1.0448   49.2407 C.3     1  ZINC000375477402    0.1400
     23 C23        -0.2575    1.5838   47.2224 C.3     1  ZINC000375477402   -0.1100
     24 C24        -1.1158    0.7521   46.2621 C.3     1  ZINC000375477402   -0.1600
     25 C25        -0.6044   -0.6910   46.2567 C.3     1  ZINC000375477402    0.0600
     26 O26        -0.6576   -1.2210   47.5829 O.3     1  ZINC000375477402   -0.3800
     27 C27         0.1634   -0.5218   48.5227 C.3     1  ZINC000375477402    0.0800
     28 H28        -3.9476    1.1952   50.3258 H       1  ZINC000375477402    0.4000
     29 H29        -5.5713    2.7240   49.1064 H       1  ZINC000375477402    0.1400
     30 H30        -6.6795    4.6290   48.0103 H       1  ZINC000375477402    0.1500
     31 H31        -7.3623    6.5876   49.3358 H       1  ZINC000375477402    0.1500
     32 H32        -0.3260    3.6604   49.3108 H       1  ZINC000375477402    0.0700
     33 H33        -0.0073    3.2228   51.0172 H       1  ZINC000375477402    0.0700
     34 H34         1.5019    2.1230   49.0532 H       1  ZINC000375477402    0.0900
     35 H35         0.9391    1.0915   50.4112 H       1  ZINC000375477402    0.0800
     36 H36        -1.8861    0.1440   49.8147 H       1  ZINC000375477402    0.0800
     37 H37        -2.4232    1.1858   48.4667 H       1  ZINC000375477402    0.0700
     38 H38        -0.6616    2.5938   47.2904 H       1  ZINC000375477402    0.0700
     39 H39         0.7671    1.6244   46.8531 H       1  ZINC000375477402    0.0700
     40 H40        -2.1542    0.7696   46.5929 H       1  ZINC000375477402    0.0700
     41 H41        -1.0450    1.1677   45.2569 H       1  ZINC000375477402    0.0800
     42 H42        -1.2290   -1.2952   45.5988 H       1  ZINC000375477402    0.1000
     43 H43         0.4249   -0.7103   45.8989 H       1  ZINC000375477402    0.0500
     44 H44         1.2040   -0.5697   48.2019 H       1  ZINC000375477402    0.0600
     45 H45         0.0649   -0.9837   49.5050 H       1  ZINC000375477402    0.1000
@<TRIPOS>BOND
     1     1     2    2
     2     2     3   am
     3     2    18   am
     4     3     4    1
     5     3    28    1
     6     4     5    1
     7     4     6    1
     8     4    14    1
     9     6    12   ar
    10     6     7   ar
    11     7     8   ar
    12     7    29    1
    13     8     9   ar
    14     8    30    1
    15     9    10   ar
    16     9    31    1
    17    10    11    1
    18    10    12   ar
    19    12    13    1
    20    14    15    1
    21    14    16    1
    22    14    17    1
    23    18    22    1
    24    18    19    1
    25    19    20    1
    26    19    32    1
    27    19    33    1
    28    20    21    1
    29    20    34    1
    30    20    35    1
    31    21    27    1
    32    21    22    1
    33    21    23    1
    34    22    36    1
    35    22    37    1
    36    23    24    1
    37    23    38    1
    38    23    39    1
    39    24    25    1
    40    24    40    1
    41    24    41    1
    42    25    26    1
    43    25    42    1
    44    25    43    1
    45    26    27    1
    46    27    44    1
    47    27    45    1
@<TRIPOS>SUBSTRUCTURE
     1 ZINC000375477402        1 TEMP              0 ****  ****    0 ROOT


##########                                Name:    ZINC000432833246
##########                DOCK_Rotatable_Bonds:                   5
##########                         Heavy_Atoms:                  25
##########                    Molecular_Weight:             400.318
##########                DOCK_Rotatable_Bonds:                   5
##########                       Formal_Charge:        -3.20375e-07
##########                     HBond_Acceptors:                   4
##########                        HBond_Donors:                   1
##########                         Heavy_Atoms:                  25
##########                          Grid_Score:          -30.879456
##########                     Grid_vdw_energy:          -30.404221
##########                      Grid_es_energy:           -0.475235
##########           Internal_energy_repulsive:           10.341165

@<TRIPOS>MOLECULE
ZINC000432833246
 47 51 1 0 0
SMALL
USER_CHARGES


@<TRIPOS>ATOM
      1 O1          0.5763   -0.1050   44.2537 O.2     1  ZINC000432833246   -0.5200
      2 C2          0.5905   -0.1685   45.4647 C.2     1  ZINC000432833246    0.5200
      3 C3         -0.6166   -0.4510   46.3318 C.3     1  ZINC000432833246   -0.1500
      4 C4         -0.0161   -0.8376   47.7033 C.3     1  ZINC000432833246   -0.1100
      5 H5          0.1044   -1.9179   47.7857 H       1  ZINC000432833246    0.1000
      6 C6         -0.8738   -0.2962   48.8488 C.3     1  ZINC000432833246    0.1300
      7 N7         -1.0395    1.1511   48.6929 N.pl3   1  ZINC000432833246   -0.7200
      8 C8         -1.7546    1.8727   49.6366 C.ar    1  ZINC000432833246    0.2800
      9 C9         -1.0939    2.5799   50.6691 C.ar    1  ZINC000432833246   -0.1500
     10 C10         0.3038    2.5782   50.7759 C.ar    1  ZINC000432833246   -0.0700
     11 C11         0.9037    3.2716   51.7838 C.ar    1  ZINC000432833246   -0.1300
     12 C12         0.1455    3.9826   52.7107 C.ar    1  ZINC000432833246   -0.0600
     13 C13        -1.2143    4.0052   52.6357 C.ar    1  ZINC000432833246   -0.0800
     14 Br14       -2.2189    4.9796   53.9075 Br      1  ZINC000432833246   -0.0300
     15 C15        -1.8682    3.3016   51.6085 C.ar    1  ZINC000432833246    0.1900
     16 N16        -3.2024    3.3071   51.5109 N.ar    1  ZINC000432833246   -0.5000
     17 C17        -3.8266    2.6553   50.5574 C.ar    1  ZINC000432833246    0.2400
     18 C18        -5.3319    2.7017   50.5030 C.3     1  ZINC000432833246   -0.1100
     19 C19        -6.0937    1.4518   50.9486 C.3     1  ZINC000432833246   -0.1700
     20 C20        -6.0873    2.6999   51.8336 C.3     1  ZINC000432833246   -0.1600
     21 C21        -3.1390    1.9287   49.5952 C.ar    1  ZINC000432833246   -0.2700
     22 C22         1.3564   -0.1302   47.6570 C.3     1  ZINC000432833246    0.1100
     23 N23         1.6822   -0.0039   46.2315 N.am    1  ZINC000432833246   -0.5900
     24 C24         3.0232    0.2748   45.7117 C.3     1  ZINC000432833246    0.0800
     25 C25         3.8936    1.2602   46.4942 C.3     1  ZINC000432833246   -0.1900
     26 C26         4.2156   -0.2352   46.5232 C.3     1  ZINC000432833246   -0.1900
     27 H27        -1.2367    0.4406   46.4246 H       1  ZINC000432833246    0.1100
     28 H28        -1.1955   -1.2785   45.9218 H       1  ZINC000432833246    0.1000
     29 H29        -1.8514   -0.7779   48.8298 H       1  ZINC000432833246    0.0800
     30 H30        -0.3840   -0.5055   49.7998 H       1  ZINC000432833246    0.0700
     31 H31        -0.6489    1.6045   47.9295 H       1  ZINC000432833246    0.4000
     32 H32         0.9021    2.0298   50.0633 H       1  ZINC000432833246    0.1300
     33 H33         1.9807    3.2695   51.8651 H       1  ZINC000432833246    0.1400
     34 H34         0.6435    4.5241   53.5013 H       1  ZINC000432833246    0.1400
     35 H35        -5.7550    3.2844   49.6849 H       1  ZINC000432833246    0.1300
     36 H36        -7.0182    1.2121   50.4233 H       1  ZINC000432833246    0.1000
     37 H37        -5.5062    0.5961   51.2810 H       1  ZINC000432833246    0.1000
     38 H38        -5.4955    2.6652   52.7483 H       1  ZINC000432833246    0.0900
     39 H39        -7.0076    3.2812   51.8906 H       1  ZINC000432833246    0.1000
     40 H40        -3.6805    1.4031   48.8228 H       1  ZINC000432833246    0.1400
     41 H41         1.2894    0.8537   48.1211 H       1  ZINC000432833246    0.0800
     42 H42         2.1098   -0.7354   48.1612 H       1  ZINC000432833246    0.0900
     43 H43         3.1160    0.2734   44.6256 H       1  ZINC000432833246    0.1300
     44 H44         4.5591    1.9074   45.9231 H       1  ZINC000432833246    0.1000
     45 H45         3.4685    1.7011   47.3959 H       1  ZINC000432833246    0.1300
     46 H46         4.0025   -0.7782   47.4440 H       1  ZINC000432833246    0.0900
     47 H47         5.0932   -0.5719   45.9711 H       1  ZINC000432833246    0.1000
@<TRIPOS>BOND
     1     1     2    2
     2     2    23   am
     3     2     3    1
     4     3     4    1
     5     3    27    1
     6     3    28    1
     7     4     5    1
     8     4     6    1
     9     4    22    1
    10     6     7    1
    11     6    29    1
    12     6    30    1
    13     7     8    1
    14     7    31    1
    15     8    21   ar
    16     8     9   ar
    17     9    15   ar
    18     9    10   ar
    19    10    11   ar
    20    10    32    1
    21    11    12   ar
    22    11    33    1
    23    12    13   ar
    24    12    34    1
    25    13    14    1
    26    13    15   ar
    27    15    16   ar
    28    16    17   ar
    29    17    18    1
    30    17    21   ar
    31    18    20    1
    32    18    19    1
    33    18    35    1
    34    19    20    1
    35    19    36    1
    36    19    37    1
    37    20    38    1
    38    20    39    1
    39    21    40    1
    40    22    23    1
    41    22    41    1
    42    22    42    1
    43    23    24    1
    44    24    26    1
    45    24    25    1
    46    24    43    1
    47    25    26    1
    48    25    44    1
    49    25    45    1
    50    26    46    1
    51    26    47    1
@<TRIPOS>SUBSTRUCTURE
     1 ZINC000432833246        1 TEMP              0 ****  ****    0 ROOT


##########                                Name:    ZINC000438893617
##########                DOCK_Rotatable_Bonds:                   5
##########                         Heavy_Atoms:                  29
##########                    Molecular_Weight:             412.596
##########                DOCK_Rotatable_Bonds:                   5
##########                       Formal_Charge:           0.0600001
##########                     HBond_Acceptors:                   5
##########                        HBond_Donors:                   0
##########                         Heavy_Atoms:                  29
##########                          Grid_Score:          -30.876242
##########                     Grid_vdw_energy:          -30.545540
##########                      Grid_es_energy:           -0.330701
##########           Internal_energy_repulsive:          168.871979

@<TRIPOS>MOLECULE
ZINC000438893617
 61 66 1 0 0
SMALL
USER_CHARGES


@<TRIPOS>ATOM
      1 C1         -8.5937    3.1461   53.0763 C.3     1  ZINC000438893617   -0.1000
      2 C2         -8.2596    1.7906   52.5089 C.2     1  ZINC000438893617   -0.0900
      3 C3         -7.2106    1.5856   51.7108 C.2     1  ZINC000438893617   -0.1600
      4 C4         -6.2330    2.6451   51.2716 C.3     1  ZINC000438893617   -0.0400
      5 H5         -6.4256    3.6486   51.6508 H       1  ZINC000438893617    0.1400
      6 C6         -5.6428    2.5223   49.8654 C.3     1  ZINC000438893617   -0.1400
      7 C7         -4.7727    2.2268   51.0895 C.3     1  ZINC000438893617   -0.1800
      8 H8         -4.5189    1.1854   51.2870 H       1  ZINC000438893617    0.1300
      9 C9         -3.7100    3.2339   51.4473 C.2     1  ZINC000438893617    0.5500
     10 O10        -3.8039    3.8764   52.4716 O.2     1  ZINC000438893617   -0.5300
     11 N11        -2.6554    3.4202   50.6291 N.am    1  ZINC000438893617   -0.6100
     12 C12        -1.6094    4.3955   50.9673 C.3     1  ZINC000438893617    0.0900
     13 C13        -0.2531    3.6795   50.9670 C.3     1  ZINC000438893617    0.1000
     14 N14        -0.1283    2.9105   49.7208 N.am    1  ZINC000438893617   -0.6100
     15 C15         0.9268    3.0961   48.9030 C.2     1  ZINC000438893617    0.5300
     16 O16         1.7840    3.9037   49.1929 O.2     1  ZINC000438893617   -0.5300
     17 C17         1.0413    2.3003   47.6284 C.3     1  ZINC000438893617   -0.0700
     18 C18        -0.1453    2.6221   46.7178 C.3     1  ZINC000438893617   -0.1100
     19 C19        -0.0289    1.8142   45.4238 C.3     1  ZINC000438893617   -0.0800
     20 C20        -0.0296    0.3201   45.7536 C.3     1  ZINC000438893617   -0.1100
     21 C21         1.1571   -0.0016   46.6642 C.3     1  ZINC000438893617   -0.0800
     22 C22         2.4608    0.3625   45.9510 C.3     1  ZINC000438893617   -0.1100
     23 C23         2.4614    1.8566   45.6212 C.3     1  ZINC000438893617   -0.0900
     24 C24         1.2747    2.1784   44.7105 C.3     1  ZINC000438893617   -0.1100
     25 C25         2.3450    2.6646   46.9152 C.3     1  ZINC000438893617   -0.0900
     26 C26         1.0407    0.8062   47.9582 C.3     1  ZINC000438893617   -0.1200
     27 C27        -1.1743    1.9352   49.3825 C.3     1  ZINC000438893617    0.0700
     28 C28        -2.5278    2.6473   49.3857 C.3     1  ZINC000438893617    0.1000
     29 S29        -7.1425   -0.1104   51.2501 S.3     1  ZINC000438893617    0.1000
     30 C30        -8.5851   -0.4560   52.1951 C.2     1  ZINC000438893617   -0.2100
     31 C31        -9.0148    0.6628   52.7808 C.2     1  ZINC000438893617   -0.1300
     32 H32        -8.0852    3.2753   54.0318 H       1  ZINC000438893617    0.0700
     33 H33        -8.2667    3.9210   52.3830 H       1  ZINC000438893617    0.0700
     34 H34        -9.6708    3.2223   53.2250 H       1  ZINC000438893617    0.0700
     35 H35        -5.9616    1.6754   49.2579 H       1  ZINC000438893617    0.1100
     36 H36        -5.4468    3.4453   49.3195 H       1  ZINC000438893617    0.1100
     37 H37        -1.6012    5.1949   50.2264 H       1  ZINC000438893617    0.0800
     38 H38        -1.8031    4.8117   51.9559 H       1  ZINC000438893617    0.1000
     39 H39         0.5490    4.4152   51.0248 H       1  ZINC000438893617    0.1100
     40 H40        -0.1957    3.0043   51.8208 H       1  ZINC000438893617    0.0700
     41 H41        -1.0740    2.3626   47.2259 H       1  ZINC000438893617    0.0800
     42 H42        -0.1448    3.6865   46.4829 H       1  ZINC000438893617    0.0700
     43 H43        -0.8744    2.0434   44.7751 H       1  ZINC000438893617    0.0800
     44 H44        -0.9583    0.0606   46.2617 H       1  ZINC000438893617    0.0600
     45 H45         0.0533   -0.2555   44.8317 H       1  ZINC000438893617    0.0700
     46 H46         1.1566   -1.0660   46.8991 H       1  ZINC000438893617    0.0800
     47 H47         3.3061    0.1333   46.5996 H       1  ZINC000438893617    0.0600
     48 H48         2.5436   -0.2130   45.0291 H       1  ZINC000438893617    0.0700
     49 H49         3.3902    2.1162   45.1130 H       1  ZINC000438893617    0.0700
     50 H50         1.3576    1.6028   43.7886 H       1  ZINC000438893617    0.0700
     51 H51         1.2752    3.2428   44.4755 H       1  ZINC000438893617    0.0600
     52 H52         2.3455    3.7290   46.6802 H       1  ZINC000438893617    0.0700
     53 H53         3.1904    2.4354   47.5640 H       1  ZINC000438893617    0.0700
     54 H54         1.8862    0.5771   48.6069 H       1  ZINC000438893617    0.0700
     55 H55         0.1120    0.5468   48.4663 H       1  ZINC000438893617    0.0800
     56 H56        -0.9806    1.5191   48.3940 H       1  ZINC000438893617    0.1300
     57 H57        -1.1825    1.1358   50.1235 H       1  ZINC000438893617    0.0800
     58 H58        -3.3289    1.9104   49.3277 H       1  ZINC000438893617    0.1100
     59 H59        -2.5872    3.3237   48.5330 H       1  ZINC000438893617    0.0700
     60 H60        -9.0493   -1.4264   52.2903 H       1  ZINC000438893617    0.1700
     61 H61        -9.8902    0.6884   53.4128 H       1  ZINC000438893617    0.1400
@<TRIPOS>BOND
     1     1     2    1
     2     1    32    1
     3     1    33    1
     4     1    34    1
     5     2    31    1
     6     2     3    2
     7     3     4    1
     8     3    29    1
     9     4     5    1
    10     4     7    1
    11     4     6    1
    12     6     7    1
    13     6    35    1
    14     6    36    1
    15     7     8    1
    16     7     9    1
    17     9    10    2
    18     9    11   am
    19    11    28    1
    20    11    12    1
    21    12    13    1
    22    12    37    1
    23    12    38    1
    24    13    14    1
    25    13    39    1
    26    13    40    1
    27    14    15   am
    28    14    27    1
    29    15    16    2
    30    15    17    1
    31    17    25    1
    32    17    26    1
    33    17    18    1
    34    18    19    1
    35    18    41    1
    36    18    42    1
    37    19    24    1
    38    19    20    1
    39    19    43    1
    40    20    21    1
    41    20    44    1
    42    20    45    1
    43    21    22    1
    44    21    26    1
    45    21    46    1
    46    22    23    1
    47    22    47    1
    48    22    48    1
    49    23    24    1
    50    23    25    1
    51    23    49    1
    52    24    50    1
    53    24    51    1
    54    25    52    1
    55    25    53    1
    56    26    54    1
    57    26    55    1
    58    27    28    1
    59    27    56    1
    60    27    57    1
    61    28    58    1
    62    28    59    1
    63    29    30    1
    64    30    31    2
    65    30    60    1
    66    31    61    1
@<TRIPOS>SUBSTRUCTURE
     1 ZINC000438893617        1 TEMP              0 ****  ****    0 ROOT


##########                                Name:    ZINC000962730513
##########                DOCK_Rotatable_Bonds:                   6
##########                         Heavy_Atoms:                  24
##########                    Molecular_Weight:             342.465
##########                DOCK_Rotatable_Bonds:                   6
##########                       Formal_Charge:         -0.00999998
##########                     HBond_Acceptors:                   6
##########                        HBond_Donors:                   1
##########                         Heavy_Atoms:                  24
##########                          Grid_Score:          -30.862825
##########                     Grid_vdw_energy:          -30.327055
##########                      Grid_es_energy:           -0.535770
##########           Internal_energy_repulsive:           13.335330

@<TRIPOS>MOLECULE
ZINC000962730513
 46 49 1 0 0
SMALL
USER_CHARGES


@<TRIPOS>ATOM
      1 C1        -12.0143   -0.2110   51.4988 C.3     1  ZINC000962730513   -0.1400
      2 C2        -12.3849    1.0694   52.2499 C.3     1  ZINC000962730513   -0.0800
      3 C3        -11.8296    1.0094   53.6495 C.2     1  ZINC000962730513   -0.0100
      4 C4        -10.5238    1.2761   53.9518 C.2     1  ZINC000962730513   -0.2800
      5 C5         -9.4873    1.6528   52.9861 C.2     1  ZINC000962730513    0.6000
      6 O6         -9.7697    1.7809   51.8092 O.2     1  ZINC000962730513   -0.5200
      7 N7         -8.2217    1.8575   53.4016 N.am    1  ZINC000962730513   -0.7000
      8 C8         -7.1854    2.2323   52.4362 C.3     1  ZINC000962730513    0.1200
      9 H9         -7.3715    3.1515   51.8808 H       1  ZINC000962730513    0.1400
     10 C10        -6.4610    1.1006   51.7044 C.3     1  ZINC000962730513   -0.1700
     11 H11        -6.7745    0.0692   51.8658 H       1  ZINC000962730513    0.1200
     12 C12        -5.7484    1.4321   50.3757 C.3     1  ZINC000962730513    0.0700
     13 N13        -4.3920    1.8828   50.7805 N.3     1  ZINC000962730513   -0.5000
     14 C14        -3.7670    2.6877   49.7224 C.3     1  ZINC000962730513    0.1100
     15 C15        -2.8193    1.8255   48.9290 C.ar    1  ZINC000962730513    0.3200
     16 N16        -2.2744    0.7729   49.5053 N.ar    1  ZINC000962730513   -0.5100
     17 C17        -1.4377   -0.0071   48.8399 C.ar    1  ZINC000962730513    0.1500
     18 C18        -1.1379    0.2958   47.5211 C.ar    1  ZINC000962730513   -0.1900
     19 C19        -0.1905   -0.5666   46.7275 C.3     1  ZINC000962730513   -0.1100
     20 C20        -1.7305    1.4108   46.9496 C.ar    1  ZINC000962730513    0.1500
     21 N21        -2.5616    2.1411   47.6756 N.ar    1  ZINC000962730513   -0.5000
     22 C22        -4.6271    2.6975   52.0004 C.3     1  ZINC000962730513    0.0700
     23 C23        -5.7345    1.9082   52.7979 C.3     1  ZINC000962730513   -0.1700
     24 H24        -5.4600    1.4946   53.7682 H       1  ZINC000962730513    0.1300
     25 S25       -10.2864    1.0956   55.6846 S.3     1  ZINC000962730513    0.1900
     26 C26       -11.9248    0.6779   55.9128 C.2     1  ZINC000962730513   -0.2200
     27 C27       -12.5874    0.6865   54.7500 C.2     1  ZINC000962730513   -0.1500
     28 H28       -10.9293   -0.3057   51.4553 H       1  ZINC000962730513    0.0600
     29 H29       -12.4337   -1.0719   52.0194 H       1  ZINC000962730513    0.0500
     30 H30       -12.4160   -0.1676   50.4864 H       1  ZINC000962730513    0.0600
     31 H31       -11.9656    1.9303   51.7292 H       1  ZINC000962730513    0.1000
     32 H32       -13.4699    1.1641   52.2932 H       1  ZINC000962730513    0.0700
     33 H33        -7.9969    1.7565   54.3398 H       1  ZINC000962730513    0.4000
     34 H34        -5.6820    0.5435   49.7479 H       1  ZINC000962730513    0.0900
     35 H35        -6.2736    2.2305   49.8515 H       1  ZINC000962730513    0.0500
     36 H36        -4.5392    3.0820   49.0618 H       1  ZINC000962730513    0.1000
     37 H37        -3.2165    3.5141   50.1719 H       1  ZINC000962730513    0.0700
     38 H38        -0.9944   -0.8680   49.3181 H       1  ZINC000962730513    0.1700
     39 H39        -0.7514   -1.3538   46.2236 H       1  ZINC000962730513    0.0800
     40 H40         0.3232    0.0452   45.9859 H       1  ZINC000962730513    0.0700
     41 H41         0.5417   -1.0150   47.3989 H       1  ZINC000962730513    0.0700
     42 H42        -1.5199    1.6777   45.9246 H       1  ZINC000962730513    0.1700
     43 H43        -3.7165    2.7616   52.5960 H       1  ZINC000962730513    0.0800
     44 H44        -4.9769    3.6939   51.7305 H       1  ZINC000962730513    0.0600
     45 H45       -12.3690    0.4421   56.8685 H       1  ZINC000962730513    0.1700
     46 H46       -13.6386    0.4490   54.6804 H       1  ZINC000962730513    0.1500
@<TRIPOS>BOND
     1     1     2    1
     2     1    28    1
     3     1    29    1
     4     1    30    1
     5     2     3    1
     6     2    31    1
     7     2    32    1
     8     3    27    1
     9     3     4    2
    10     4     5    1
    11     4    25    1
    12     5     6    2
    13     5     7   am
    14     7     8    1
    15     7    33    1
    16     8     9    1
    17     8    23    1
    18     8    10    1
    19    10    11    1
    20    10    23    1
    21    10    12    1
    22    12    13    1
    23    12    34    1
    24    12    35    1
    25    13    14    1
    26    13    22    1
    27    14    15    1
    28    14    36    1
    29    14    37    1
    30    15    21   ar
    31    15    16   ar
    32    16    17   ar
    33    17    18   ar
    34    17    38    1
    35    18    19    1
    36    18    20   ar
    37    19    39    1
    38    19    40    1
    39    19    41    1
    40    20    21   ar
    41    20    42    1
    42    22    23    1
    43    22    43    1
    44    22    44    1
    45    23    24    1
    46    25    26    1
    47    26    27    2
    48    26    45    1
    49    27    46    1
@<TRIPOS>SUBSTRUCTURE
     1 ZINC000962730513        1 TEMP              0 ****  ****    0 ROOT


##########                                Name:    ZINC001074839487
##########                DOCK_Rotatable_Bonds:                   7
##########                         Heavy_Atoms:                  25
##########                    Molecular_Weight:             344.454
##########                DOCK_Rotatable_Bonds:                   7
##########                       Formal_Charge:          -0.0500005
##########                     HBond_Acceptors:                   5
##########                        HBond_Donors:                   1
##########                         Heavy_Atoms:                  25
##########                          Grid_Score:          -30.855900
##########                     Grid_vdw_energy:          -29.348639
##########                      Grid_es_energy:           -1.507262
##########           Internal_energy_repulsive:           88.518997

@<TRIPOS>MOLECULE
ZINC001074839487
 53 55 1 0 0
SMALL
USER_CHARGES


@<TRIPOS>ATOM
      1 C1          0.1579    1.9673   58.1592 C.3     1  ZINC001074839487   -0.1500
      2 C2         -1.1428    2.7647   58.0438 C.3     1  ZINC001074839487   -0.1300
      3 C3         -1.1553    3.5311   56.7196 C.3     1  ZINC001074839487   -0.1100
      4 C4         -2.4621    4.3174   56.5978 C.3     1  ZINC001074839487   -0.1400
      5 C5         -2.4501    5.1169   55.3204 C.2     1  ZINC001074839487    0.5100
      6 O6         -1.9829    6.2361   55.3099 O.2     1  ZINC001074839487   -0.5400
      7 N7         -2.9584    4.5882   54.1897 N.am    1  ZINC001074839487   -0.7300
      8 C8         -2.9451    5.3647   52.9476 C.3     1  ZINC001074839487    0.1400
      9 H9         -2.8038    6.4202   53.1806 H       1  ZINC001074839487    0.0900
     10 C10        -1.7986    4.8814   52.0563 C.3     1  ZINC001074839487   -0.1500
     11 C11        -1.9821    3.3899   51.7591 C.3     1  ZINC001074839487    0.0700
     12 N12        -3.3195    3.1827   51.1873 N.am    1  ZINC001074839487   -0.6000
     13 C13        -3.4720    2.5398   50.0125 C.2     1  ZINC001074839487    0.5600
     14 O14        -4.5838    2.3746   49.5499 O.2     1  ZINC001074839487   -0.5200
     15 C15        -2.2869    2.0355   49.2866 C.ar    1  ZINC001074839487   -0.1300
     16 C16        -1.5223    2.9029   48.5051 C.ar    1  ZINC001074839487   -0.1000
     17 C17        -0.4168    2.4267   47.8293 C.ar    1  ZINC001074839487   -0.1000
     18 C18        -0.0670    1.0943   47.9256 C.ar    1  ZINC001074839487   -0.1100
     19 C19         1.0594    0.2879   47.3213 C.3     1  ZINC001074839487    0.0900
     20 O20         0.6651   -1.0914   47.4369 O.3     1  ZINC001074839487   -0.3600
     21 C21        -0.1853   -1.1393   48.5972 C.3     1  ZINC001074839487    0.0900
     22 C22        -0.8234    0.2265   48.7010 C.ar    1  ZINC001074839487   -0.1400
     23 C23        -1.9247    0.6902   49.3845 C.ar    1  ZINC001074839487   -0.0400
     24 C24        -4.4876    3.6901   51.9199 C.3     1  ZINC001074839487    0.1500
     25 H25        -4.5970    3.1436   52.8567 H       1  ZINC001074839487    0.0700
     26 C26        -5.7455    3.5102   51.0678 C.3     1  ZINC001074839487   -0.1400
     27 C27        -4.2760    5.1783   52.2154 C.3     1  ZINC001074839487   -0.1400
     28 H28         0.2265    1.2622   57.3308 H       1  ZINC001074839487    0.0500
     29 H29         0.1668    1.4214   59.1026 H       1  ZINC001074839487    0.0500
     30 H30         1.0069    2.6501   58.1265 H       1  ZINC001074839487    0.0500
     31 H31        -1.9918    2.0820   58.0766 H       1  ZINC001074839487    0.0600
     32 H32        -1.2114    3.4698   58.8723 H       1  ZINC001074839487    0.0600
     33 H33        -0.3120    4.2212   56.6912 H       1  ZINC001074839487    0.0700
     34 H34        -1.0766    2.8267   55.8915 H       1  ZINC001074839487    0.0700
     35 H35        -3.3033    3.6243   56.5847 H       1  ZINC001074839487    0.0900
     36 H36        -2.5606    4.9924   57.4479 H       1  ZINC001074839487    0.0900
     37 H37        -3.3331    3.6936   54.1984 H       1  ZINC001074839487    0.4000
     38 H38        -1.8033    5.4419   51.1216 H       1  ZINC001074839487    0.0800
     39 H39        -0.8492    5.0362   52.5691 H       1  ZINC001074839487    0.0800
     40 H40        -1.2252    3.0636   51.0460 H       1  ZINC001074839487    0.1200
     41 H41        -1.8872    2.8188   52.6828 H       1  ZINC001074839487    0.0700
     42 H42        -1.7949    3.9453   48.4295 H       1  ZINC001074839487    0.1500
     43 H43         0.1756    3.0973   47.2247 H       1  ZINC001074839487    0.1400
     44 H44         1.1913    0.5542   46.2726 H       1  ZINC001074839487    0.1000
     45 H45         1.9835    0.4618   47.8726 H       1  ZINC001074839487    0.0800
     46 H46        -0.9521   -1.9033   48.4695 H       1  ZINC001074839487    0.1000
     47 H47         0.4070   -1.3459   49.4885 H       1  ZINC001074839487    0.0800
     48 H48        -2.5095    0.0148   49.9913 H       1  ZINC001074839487    0.1400
     49 H49        -5.9542    2.4470   50.9481 H       1  ZINC001074839487    0.0800
     50 H50        -6.5898    3.9931   51.5598 H       1  ZINC001074839487    0.0500
     51 H51        -5.5886    3.9621   50.0884 H       1  ZINC001074839487    0.0700
     52 H52        -5.0898    5.5443   52.8412 H       1  ZINC001074839487    0.0900
     53 H53        -4.2573    5.7360   51.2791 H       1  ZINC001074839487    0.0900
@<TRIPOS>BOND
     1     1     2    1
     2     1    28    1
     3     1    29    1
     4     1    30    1
     5     2     3    1
     6     2    31    1
     7     2    32    1
     8     3     4    1
     9     3    33    1
    10     3    34    1
    11     4     5    1
    12     4    35    1
    13     4    36    1
    14     5     6    2
    15     5     7   am
    16     7     8    1
    17     7    37    1
    18     8     9    1
    19     8    27    1
    20     8    10    1
    21    10    11    1
    22    10    38    1
    23    10    39    1
    24    11    12    1
    25    11    40    1
    26    11    41    1
    27    12    13   am
    28    12    24    1
    29    13    14    2
    30    13    15    1
    31    15    23   ar
    32    15    16   ar
    33    16    17   ar
    34    16    42    1
    35    17    18   ar
    36    17    43    1
    37    18    22   ar
    38    18    19    1
    39    19    20    1
    40    19    44    1
    41    19    45    1
    42    20    21    1
    43    21    22    1
    44    21    46    1
    45    21    47    1
    46    22    23   ar
    47    23    48    1
    48    24    25    1
    49    24    26    1
    50    24    27    1
    51    26    49    1
    52    26    50    1
    53    26    51    1
    54    27    52    1
    55    27    53    1
@<TRIPOS>SUBSTRUCTURE
     1 ZINC001074839487        1 TEMP              0 ****  ****    0 ROOT


##########                                Name:    ZINC000892249927
##########                DOCK_Rotatable_Bonds:                   8
##########                         Heavy_Atoms:                  27
##########                    Molecular_Weight:             364.487
##########                DOCK_Rotatable_Bonds:                   8
##########                       Formal_Charge:          -0.0300015
##########                     HBond_Acceptors:                   4
##########                        HBond_Donors:                   1
##########                         Heavy_Atoms:                  27
##########                          Grid_Score:          -30.851379
##########                     Grid_vdw_energy:          -30.311691
##########                      Grid_es_energy:           -0.539688
##########           Internal_energy_repulsive:           12.621928

@<TRIPOS>MOLECULE
ZINC000892249927
 55 58 1 0 0
SMALL
USER_CHARGES


@<TRIPOS>ATOM
      1 O1        -11.5390   -2.2993   55.3303 O.2     1  ZINC000892249927   -0.5300
      2 C2        -11.2619   -1.1433   55.5707 C.2     1  ZINC000892249927    0.5100
      3 C3        -11.3496   -0.1052   54.4818 C.3     1  ZINC000892249927   -0.1400
      4 C4        -11.3477   -0.7966   53.1168 C.3     1  ZINC000892249927   -0.1000
      5 C5        -11.0545    0.2333   52.0240 C.3     1  ZINC000892249927   -0.0800
      6 C6         -9.6005    0.6256   52.0805 C.ar    1  ZINC000892249927   -0.0900
      7 C7         -8.6189   -0.3399   51.9575 C.ar    1  ZINC000892249927   -0.1100
      8 C8         -7.2852    0.0200   52.0094 C.ar    1  ZINC000892249927   -0.1100
      9 C9         -6.9331    1.3453   52.1837 C.ar    1  ZINC000892249927   -0.0500
     10 C10        -5.4792    1.7375   52.2407 C.3     1  ZINC000892249927   -0.1200
     11 C11        -4.7300    1.8675   50.9129 C.3     1  ZINC000892249927   -0.1800
     12 C12        -5.0994    3.1209   51.7090 C.3     1  ZINC000892249927   -0.1700
     13 C13        -7.9148    2.3109   52.3052 C.ar    1  ZINC000892249927   -0.1200
     14 C14        -9.2485    1.9516   52.2495 C.ar    1  ZINC000892249927   -0.1100
     15 N15       -10.8809   -0.7859   56.8132 N.am    1  ZINC000892249927   -0.7300
     16 C16       -10.7957   -1.7951   57.8718 C.3     1  ZINC000892249927    0.1400
     17 H17       -10.4142   -2.7279   57.4566 H       1  ZINC000892249927    0.1000
     18 C18       -12.1866   -2.0308   58.4683 C.3     1  ZINC000892249927   -0.1700
     19 C19       -12.6816   -0.7351   59.1164 C.3     1  ZINC000892249927    0.0600
     20 O20       -11.7467   -0.3145   60.1119 O.3     1  ZINC000892249927   -0.3700
     21 C21       -10.4407   -0.0338   59.6043 C.3     1  ZINC000892249927    0.1400
     22 H22       -10.5048    0.7499   58.8495 H       1  ZINC000892249927    0.0700
     23 C23        -9.5515    0.4252   60.7311 C.ar    1  ZINC000892249927   -0.1400
     24 C24        -8.9391    1.6678   60.6804 C.ar    1  ZINC000892249927   -0.0700
     25 C25        -8.1298    2.0486   61.7402 C.ar    1  ZINC000892249927   -0.1700
     26 C26        -7.9618    1.1829   62.8040 C.ar    1  ZINC000892249927    0.1000
     27 N27        -8.5603    0.0077   62.8184 N.ar    1  ZINC000892249927   -0.4900
     28 C28        -9.3408   -0.3851   61.8310 C.ar    1  ZINC000892249927    0.1300
     29 C29        -9.8539   -1.3023   58.9748 C.3     1  ZINC000892249927   -0.1500
     30 H30       -12.2703    0.4666   54.5981 H       1  ZINC000892249927    0.0900
     31 H31       -10.4938    0.5663   54.5500 H       1  ZINC000892249927    0.0900
     32 H32       -10.5801   -1.5703   53.1025 H       1  ZINC000892249927    0.0700
     33 H33       -12.3230   -1.2491   52.9375 H       1  ZINC000892249927    0.0700
     34 H34       -11.2765   -0.1989   51.0484 H       1  ZINC000892249927    0.0700
     35 H35       -11.6751    1.1157   52.1803 H       1  ZINC000892249927    0.0700
     36 H36        -8.8939   -1.3754   51.8213 H       1  ZINC000892249927    0.1200
     37 H37        -6.5182   -0.7345   51.9140 H       1  ZINC000892249927    0.1200
     38 H38        -4.9230    1.3575   53.0976 H       1  ZINC000892249927    0.1100
     39 H39        -3.6807    1.5729   50.8962 H       1  ZINC000892249927    0.1000
     40 H40        -5.2888    1.6694   49.9982 H       1  ZINC000892249927    0.1000
     41 H41        -5.9010    3.7473   51.3179 H       1  ZINC000892249927    0.1000
     42 H42        -4.2929    3.6509   52.2158 H       1  ZINC000892249927    0.1000
     43 H43        -7.6398    3.3465   52.4410 H       1  ZINC000892249927    0.1200
     44 H44       -10.0154    2.7061   52.3445 H       1  ZINC000892249927    0.1200
     45 H45       -10.6631    0.1393   57.0064 H       1  ZINC000892249927    0.4000
     46 H46       -12.8759   -2.3293   57.6784 H       1  ZINC000892249927    0.0800
     47 H47       -12.1317   -2.8168   59.2215 H       1  ZINC000892249927    0.0800
     48 H48       -12.7750    0.0395   58.3552 H       1  ZINC000892249927    0.0500
     49 H49       -13.6528   -0.9084   59.5799 H       1  ZINC000892249927    0.1000
     50 H50        -9.0885    2.3237   59.8354 H       1  ZINC000892249927    0.1300
     51 H51        -7.6368    3.0095   61.7339 H       1  ZINC000892249927    0.1400
     52 H52        -7.3329    1.4717   63.6331 H       1  ZINC000892249927    0.1600
     53 H53        -9.8141   -1.3548   61.8780 H       1  ZINC000892249927    0.1600
     54 H54        -9.7514   -2.0738   59.7380 H       1  ZINC000892249927    0.0900
     55 H55        -8.8761   -1.0784   58.5482 H       1  ZINC000892249927    0.0800
@<TRIPOS>BOND
     1     1     2    2
     2     2     3    1
     3     2    15   am
     4     3     4    1
     5     3    30    1
     6     3    31    1
     7     4     5    1
     8     4    32    1
     9     4    33    1
    10     5     6    1
    11     5    34    1
    12     5    35    1
    13     6    14   ar
    14     6     7   ar
    15     7     8   ar
    16     7    36    1
    17     8     9   ar
    18     8    37    1
    19     9    10    1
    20     9    13   ar
    21    10    12    1
    22    10    11    1
    23    10    38    1
    24    11    12    1
    25    11    39    1
    26    11    40    1
    27    12    41    1
    28    12    42    1
    29    13    14   ar
    30    13    43    1
    31    14    44    1
    32    15    16    1
    33    15    45    1
    34    16    17    1
    35    16    29    1
    36    16    18    1
    37    18    19    1
    38    18    46    1
    39    18    47    1
    40    19    20    1
    41    19    48    1
    42    19    49    1
    43    20    21    1
    44    21    22    1
    45    21    23    1
    46    21    29    1
    47    23    28   ar
    48    23    24   ar
    49    24    25   ar
    50    24    50    1
    51    25    26   ar
    52    25    51    1
    53    26    27   ar
    54    26    52    1
    55    27    28   ar
    56    28    53    1
    57    29    54    1
    58    29    55    1
@<TRIPOS>SUBSTRUCTURE
     1 ZINC000892249927        1 TEMP              0 ****  ****    0 ROOT


##########                                Name:    ZINC000433961694
##########                DOCK_Rotatable_Bonds:                   7
##########                         Heavy_Atoms:                  29
##########                    Molecular_Weight:             413.472
##########                DOCK_Rotatable_Bonds:                   7
##########                       Formal_Charge:          0.00999992
##########                     HBond_Acceptors:                   8
##########                        HBond_Donors:                   0
##########                         Heavy_Atoms:                  29
##########                          Grid_Score:          -30.849638
##########                     Grid_vdw_energy:          -30.121866
##########                      Grid_es_energy:           -0.727772
##########           Internal_energy_repulsive:            9.477426

@<TRIPOS>MOLECULE
ZINC000433961694
 49 52 1 0 0
SMALL
USER_CHARGES


@<TRIPOS>ATOM
      1 C1         -2.8288    4.0984   52.7448 C.3     1  ZINC000433961694   -0.1000
      2 C2         -3.1814    3.4074   51.4529 C.2     1  ZINC000433961694    0.1600
      3 C3         -4.4007    3.5155   50.8681 C.2     1  ZINC000433961694   -0.3000
      4 C4         -5.5370    4.2924   51.3749 C.2     1  ZINC000433961694    0.6200
      5 O5         -5.5310    5.5062   51.2887 O.2     1  ZINC000433961694   -0.5100
      6 N6         -6.5878    3.6619   51.9359 N.am    1  ZINC000433961694   -0.6100
      7 C7         -7.7901    4.3161   52.4836 C.3     1  ZINC000433961694    0.1100
      8 C8         -8.8957    3.2330   52.4180 C.3     1  ZINC000433961694   -0.1300
      9 C9         -8.0954    1.9496   52.7642 C.3     1  ZINC000433961694    0.0800
     10 H10        -7.9880    1.8414   53.8435 H       1  ZINC000433961694    0.1000
     11 O11        -8.7231    0.7954   52.2022 O.3     1  ZINC000433961694   -0.2900
     12 C12        -9.9518    0.4692   52.6777 C.ar    1  ZINC000433961694    0.1700
     13 C13       -10.8747   -0.1962   51.8746 C.ar    1  ZINC000433961694   -0.2600
     14 C14       -12.1134   -0.5102   52.3949 C.ar    1  ZINC000433961694    0.1400
     15 N15       -12.4270   -0.1882   53.6356 N.ar    1  ZINC000433961694   -0.5100
     16 C16       -11.5799    0.4421   54.4271 C.ar    1  ZINC000433961694    0.1400
     17 C17       -10.3196    0.7860   53.9830 C.ar    1  ZINC000433961694   -0.2000
     18 C18        -6.7278    2.2072   52.0974 C.3     1  ZINC000433961694    0.0600
     19 S19        -4.3746    2.5559   49.3904 S.3     1  ZINC000433961694    0.2100
     20 C20        -2.7531    2.1099   49.6977 C.2     1  ZINC000433961694    0.0400
     21 C21        -1.9251    1.2139   48.8130 C.3     1  ZINC000433961694    0.1400
     22 O22        -2.1917    1.5194   47.4427 O.3     1  ZINC000433961694   -0.3000
     23 C23        -1.1248    1.8373   46.6624 C.ar    1  ZINC000433961694    0.1200
     24 C24        -0.3762    2.9719   46.9386 C.ar    1  ZINC000433961694   -0.1800
     25 C25         0.7076    3.2937   46.1448 C.ar    1  ZINC000433961694   -0.1100
     26 C26         1.0466    2.4847   45.0736 C.ar    1  ZINC000433961694    0.0600
     27 F27         2.1065    2.8007   44.2979 F       1  ZINC000433961694   -0.1400
     28 C28         0.3005    1.3515   44.7970 C.ar    1  ZINC000433961694   -0.1100
     29 C29        -0.7804    1.0242   45.5926 C.ar    1  ZINC000433961694   -0.1200
     30 N30        -2.3355    2.6551   50.7948 N.2     1  ZINC000433961694   -0.4500
     31 H31        -2.4226    5.0867   52.5291 H       1  ZINC000433961694    0.0800
     32 H32        -3.7237    4.1995   53.3588 H       1  ZINC000433961694    0.1000
     33 H33        -2.0851    3.5090   53.2810 H       1  ZINC000433961694    0.0800
     34 H34        -7.6189    4.6214   53.5159 H       1  ZINC000433961694    0.0800
     35 H35        -8.0651    5.1764   51.8734 H       1  ZINC000433961694    0.1000
     36 H36        -9.6717    3.4216   53.1598 H       1  ZINC000433961694    0.1000
     37 H37        -9.3216    3.1697   51.4167 H       1  ZINC000433961694    0.1000
     38 H38       -10.6245   -0.4623   50.8582 H       1  ZINC000433961694    0.1400
     39 H39       -12.8354   -1.0258   51.7790 H       1  ZINC000433961694    0.1600
     40 H40       -11.8751    0.6879   55.4364 H       1  ZINC000433961694    0.1700
     41 H41        -9.6309    1.3015   54.6359 H       1  ZINC000433961694    0.1400
     42 H42        -6.6911    1.7162   51.1249 H       1  ZINC000433961694    0.0900
     43 H43        -5.9278    1.8315   52.7352 H       1  ZINC000433961694    0.0800
     44 H44        -0.8673    1.3741   49.0218 H       1  ZINC000433961694    0.0900
     45 H45        -2.1805    0.1727   49.0095 H       1  ZINC000433961694    0.1000
     46 H46        -0.6409    3.6036   47.7736 H       1  ZINC000433961694    0.1400
     47 H47         1.2906    4.1771   46.3597 H       1  ZINC000433961694    0.1400
     48 H48         0.5662    0.7211   43.9614 H       1  ZINC000433961694    0.1500
     49 H49        -1.3622    0.1403   45.3767 H       1  ZINC000433961694    0.1400
@<TRIPOS>BOND
     1     1     2    1
     2     1    31    1
     3     1    32    1
     4     1    33    1
     5     2    30    1
     6     2     3    2
     7     3     4    1
     8     3    19    1
     9     4     5    2
    10     4     6   am
    11     6    18    1
    12     6     7    1
    13     7     8    1
    14     7    34    1
    15     7    35    1
    16     8     9    1
    17     8    36    1
    18     8    37    1
    19     9    10    1
    20     9    11    1
    21     9    18    1
    22    11    12    1
    23    12    17   ar
    24    12    13   ar
    25    13    14   ar
    26    13    38    1
    27    14    15   ar
    28    14    39    1
    29    15    16   ar
    30    16    17   ar
    31    16    40    1
    32    17    41    1
    33    18    42    1
    34    18    43    1
    35    19    20    1
    36    20    21    1
    37    20    30    2
    38    21    22    1
    39    21    44    1
    40    21    45    1
    41    22    23    1
    42    23    29   ar
    43    23    24   ar
    44    24    25   ar
    45    24    46    1
    46    25    26   ar
    47    25    47    1
    48    26    27    1
    49    26    28   ar
    50    28    29   ar
    51    28    48    1
    52    29    49    1
@<TRIPOS>SUBSTRUCTURE
     1 ZINC000433961694        1 TEMP              0 ****  ****    0 ROOT


##########                                Name:    ZINC001191196975
##########                DOCK_Rotatable_Bonds:                  14
##########                         Heavy_Atoms:                  24
##########                    Molecular_Weight:             339.438
##########                DOCK_Rotatable_Bonds:                  14
##########                       Formal_Charge:          0.00999969
##########                     HBond_Acceptors:                   8
##########                        HBond_Donors:                   4
##########                         Heavy_Atoms:                  24
##########                          Grid_Score:          -30.833542
##########                     Grid_vdw_energy:          -30.529465
##########                      Grid_es_energy:           -0.304076
##########           Internal_energy_repulsive:           12.161435

@<TRIPOS>MOLECULE
ZINC001191196975
 53 53 1 0 0
SMALL
USER_CHARGES


@<TRIPOS>ATOM
      1 C1          1.6549   -0.2135   43.2702 C.2     1  ZINC001191196975   -0.1600
      2 C2          1.0247    0.0077   44.3970 C.2     1  ZINC001191196975   -0.1800
      3 C3         -0.3620   -0.5444   44.6057 C.3     1  ZINC001191196975    0.1500
      4 N4         -1.1250    0.3639   45.4655 N.am    1  ZINC001191196975   -0.7300
      5 C5         -1.0819    0.2193   46.8047 C.2     1  ZINC001191196975    0.5100
      6 O6         -0.4103   -0.6618   47.2982 O.2     1  ZINC001191196975   -0.5200
      7 C7         -1.8682    1.1525   47.6890 C.3     1  ZINC001191196975    0.0300
      8 N8         -0.9500    1.8663   48.5866 N.3     1  ZINC001191196975   -0.5100
      9 C9          0.1097    2.5426   47.8264 C.3     1  ZINC001191196975    0.0200
     10 C10        -1.6782    2.8184   49.4359 C.3     1  ZINC001191196975    0.0700
     11 H11        -2.0034    3.6840   48.8588 H       1  ZINC001191196975    0.0600
     12 C12        -0.8161    3.2518   50.6510 C.3     1  ZINC001191196975   -0.1200
     13 C13        -1.8747    3.6303   51.7082 C.3     1  ZINC001191196975    0.1000
     14 N14        -3.1204    2.9387   51.3458 N.am    1  ZINC001191196975   -0.6200
     15 C15        -4.2897    3.0271   52.0101 C.2     1  ZINC001191196975    0.5300
     16 O16        -4.3746    3.7251   52.9982 O.2     1  ZINC001191196975   -0.5400
     17 C17        -5.4918    2.2585   51.5250 C.3     1  ZINC001191196975   -0.1300
     18 C18        -6.6138    2.3599   52.5602 C.3     1  ZINC001191196975   -0.1000
     19 C19        -7.7389    1.3917   52.1894 C.3     1  ZINC001191196975   -0.1300
     20 C20        -8.8886    1.5392   53.1881 C.3     1  ZINC001191196975    0.1400
     21 N21        -9.9154    0.5340   52.9029 N.am    1  ZINC001191196975   -0.7500
     22 C22       -10.7047    0.0766   53.8949 C.2     1  ZINC001191196975    0.7000
     23 N23       -11.6504   -0.8471   53.6322 N.am    1  ZINC001191196975   -0.8700
     24 O24       -10.5636    0.4972   55.0270 O.2     1  ZINC001191196975   -0.5900
     25 C25        -2.8794    2.1334   50.1341 C.3     1  ZINC001191196975    0.1100
     26 H26         1.1807   -0.7914   42.4906 H       1  ZINC001191196975    0.1000
     27 H27         2.6469    0.1859   43.1189 H       1  ZINC001191196975    0.1000
     28 H28         1.4988    0.5855   45.1766 H       1  ZINC001191196975    0.1200
     29 H29        -0.8636   -0.6402   43.6428 H       1  ZINC001191196975    0.0800
     30 H30        -0.2956   -1.5235   45.0799 H       1  ZINC001191196975    0.0700
     31 H31        -1.6612    1.0693   45.0708 H       1  ZINC001191196975    0.4000
     32 H32        -2.4051    1.8723   47.0712 H       1  ZINC001191196975    0.0700
     33 H33        -2.5811    0.5782   48.2805 H       1  ZINC001191196975    0.1100
     34 H34        -0.3397    3.1801   47.0650 H       1  ZINC001191196975    0.0200
     35 H35         0.7095    3.1517   48.5025 H       1  ZINC001191196975    0.0700
     36 H36         0.7454    1.7977   47.3478 H       1  ZINC001191196975    0.0900
     37 H37        -0.1998    2.4239   51.0015 H       1  ZINC001191196975    0.0900
     38 H38        -0.1985    4.1136   50.3978 H       1  ZINC001191196975    0.0800
     39 H39        -1.5447    3.3069   52.6955 H       1  ZINC001191196975    0.0700
     40 H40        -2.0344    4.7086   51.7034 H       1  ZINC001191196975    0.0700
     41 H41        -5.8324    2.6768   50.5778 H       1  ZINC001191196975    0.0900
     42 H42        -5.2213    1.2122   51.3838 H       1  ZINC001191196975    0.0900
     43 H43        -6.2237    2.1035   53.5451 H       1  ZINC001191196975    0.0800
     44 H44        -7.0018    3.3785   52.5770 H       1  ZINC001191196975    0.0800
     45 H45        -8.0981    1.6194   51.1857 H       1  ZINC001191196975    0.0700
     46 H46        -7.3624    0.3693   52.2173 H       1  ZINC001191196975    0.0700
     47 H47        -8.5110    1.3958   54.2005 H       1  ZINC001191196975    0.0700
     48 H48        -9.3213    2.5358   53.0995 H       1  ZINC001191196975    0.0700
     49 H49       -10.0271    0.1975   51.9999 H       1  ZINC001191196975    0.4000
     50 H50       -12.2193   -1.1754   54.3460 H       1  ZINC001191196975    0.4000
     51 H51       -11.7620   -1.1835   52.7292 H       1  ZINC001191196975    0.4200
     52 H52        -3.7561    2.1506   49.4866 H       1  ZINC001191196975    0.0800
     53 H53        -2.6263    1.1082   50.4041 H       1  ZINC001191196975    0.0800
@<TRIPOS>BOND
     1     1     2    2
     2     1    26    1
     3     1    27    1
     4     2     3    1
     5     2    28    1
     6     3     4    1
     7     3    29    1
     8     3    30    1
     9     4     5   am
    10     4    31    1
    11     5     6    2
    12     5     7    1
    13     7     8    1
    14     7    32    1
    15     7    33    1
    16     8     9    1
    17     8    10    1
    18     9    34    1
    19     9    35    1
    20     9    36    1
    21    10    11    1
    22    10    25    1
    23    10    12    1
    24    12    13    1
    25    12    37    1
    26    12    38    1
    27    13    14    1
    28    13    39    1
    29    13    40    1
    30    14    15   am
    31    14    25    1
    32    15    16    2
    33    15    17    1
    34    17    18    1
    35    17    41    1
    36    17    42    1
    37    18    19    1
    38    18    43    1
    39    18    44    1
    40    19    20    1
    41    19    45    1
    42    19    46    1
    43    20    21    1
    44    20    47    1
    45    20    48    1
    46    21    22   am
    47    21    49    1
    48    22    23   am
    49    22    24    2
    50    23    50    1
    51    23    51    1
    52    25    52    1
    53    25    53    1
@<TRIPOS>SUBSTRUCTURE
     1 ZINC001191196975        1 TEMP              0 ****  ****    0 ROOT


##########                                Name:    ZINC001078748831
##########                DOCK_Rotatable_Bonds:                   6
##########                         Heavy_Atoms:                  23
##########                    Molecular_Weight:             333.417
##########                DOCK_Rotatable_Bonds:                   6
##########                       Formal_Charge:           0.0299999
##########                     HBond_Acceptors:                   9
##########                        HBond_Donors:                   2
##########                         Heavy_Atoms:                  23
##########                          Grid_Score:          -30.826876
##########                     Grid_vdw_energy:          -30.293980
##########                      Grid_es_energy:           -0.532896
##########           Internal_energy_repulsive:            6.427246

@<TRIPOS>MOLECULE
ZINC001078748831
 42 45 1 0 0
SMALL
USER_CHARGES


@<TRIPOS>ATOM
      1 C1         -7.6712    2.4999   53.0375 C.3     1  ZINC001078748831    0.1000
      2 N2         -6.5567    2.1743   52.1440 N.pl3   1  ZINC001078748831   -0.1400
      3 N3         -6.6565    1.4365   51.0965 N.2     1  ZINC001078748831   -0.2900
      4 C4         -5.4806    1.3453   50.5233 C.2     1  ZINC001078748831    0.0400
      5 C5         -4.6055    2.1098   51.3206 C.2     1  ZINC001078748831   -0.0500
      6 C6         -3.1601    2.3300   51.1038 C.2     1  ZINC001078748831    0.6200
      7 O7         -2.5162    2.9748   51.9083 O.2     1  ZINC001078748831   -0.5200
      8 N8         -2.5561    1.8158   50.0141 N.am    1  ZINC001078748831   -0.7000
      9 C9         -1.1238    2.0355   49.7985 C.3     1  ZINC001078748831    0.1500
     10 H10        -0.5379    1.9404   50.7127 H       1  ZINC001078748831    0.1100
     11 C11        -0.8086    3.3086   48.9923 C.3     1  ZINC001078748831   -0.1800
     12 C12        -0.9029    2.4410   47.7240 C.3     1  ZINC001078748831    0.0800
     13 H13        -1.9065    2.3915   47.3014 H       1  ZINC001078748831    0.1000
     14 N14         0.1247    2.7497   46.7207 N.3     1  ZINC001078748831   -0.6700
     15 C15        -0.4258    2.6693   45.3612 C.3     1  ZINC001078748831    0.1400
     16 C16         0.0757    1.4170   44.6893 C.2     1  ZINC001078748831    0.0600
     17 N17         1.2491    1.3119   44.1299 N.2     1  ZINC001078748831   -0.5700
     18 S18         1.3913   -0.1297   43.5510 S.3     1  ZINC001078748831    0.6800
     19 N19        -0.0024   -0.6919   43.9696 N.2     1  ZINC001078748831   -0.5700
     20 C20        -0.6523    0.2466   44.6002 C.2     1  ZINC001078748831    0.0500
     21 C21        -0.5529    1.2477   48.6188 C.3     1  ZINC001078748831   -0.1000
     22 C22         0.8658    0.6786   48.6588 C.3     1  ZINC001078748831   -0.1000
     23 C23         0.2188   -0.6790   48.9876 C.3     1  ZINC001078748831   -0.1400
     24 C24        -1.0519   -0.1599   48.2906 C.3     1  ZINC001078748831   -0.1200
     25 N25        -5.3515    2.5938   52.3019 N.2     1  ZINC001078748831   -0.2500
     26 H26        -8.1615    3.4094   52.6902 H       1  ZINC001078748831    0.1000
     27 H27        -8.3878    1.6786   53.0387 H       1  ZINC001078748831    0.1100
     28 H28        -7.2935    2.6540   54.0483 H       1  ZINC001078748831    0.1100
     29 H29        -5.2338    0.7971   49.6262 H       1  ZINC001078748831    0.2100
     30 H30        -3.0697    1.3003   49.3728 H       1  ZINC001078748831    0.4100
     31 H31        -1.5857    4.0702   49.0584 H       1  ZINC001078748831    0.0700
     32 H32         0.1900    3.7050   49.1761 H       1  ZINC001078748831    0.1000
     33 H33         0.5361    3.6551   46.8913 H       1  ZINC001078748831    0.3500
     34 H34        -1.5144    2.6440   45.4109 H       1  ZINC001078748831    0.1000
     35 H35        -0.1085    3.5408   44.7885 H       1  ZINC001078748831    0.0600
     36 H36        -1.6477    0.1246   45.0012 H       1  ZINC001078748831    0.2000
     37 H37         1.3729    0.6995   47.6942 H       1  ZINC001078748831    0.1000
     38 H38         1.4755    1.0801   49.4682 H       1  ZINC001078748831    0.0700
     39 H39         0.6851   -1.5200   48.4742 H       1  ZINC001078748831    0.0700
     40 H40         0.0899   -0.8535   50.0558 H       1  ZINC001078748831    0.0800
     41 H41        -1.9742   -0.4283   48.8060 H       1  ZINC001078748831    0.0700
     42 H42        -1.0840   -0.3748   47.2225 H       1  ZINC001078748831    0.0900
@<TRIPOS>BOND
     1     1     2    1
     2     1    26    1
     3     1    27    1
     4     1    28    1
     5     2    25    1
     6     2     3    1
     7     3     4    2
     8     4     5    1
     9     4    29    1
    10     5     6    1
    11     5    25    2
    12     6     7    2
    13     6     8   am
    14     8     9    1
    15     8    30    1
    16     9    10    1
    17     9    21    1
    18     9    11    1
    19    11    12    1
    20    11    31    1
    21    11    32    1
    22    12    13    1
    23    12    14    1
    24    12    21    1
    25    14    15    1
    26    14    33    1
    27    15    16    1
    28    15    34    1
    29    15    35    1
    30    16    20    1
    31    16    17    2
    32    17    18    1
    33    18    19    1
    34    19    20    2
    35    20    36    1
    36    21    24    1
    37    21    22    1
    38    22    23    1
    39    22    37    1
    40    22    38    1
    41    23    24    1
    42    23    39    1
    43    23    40    1
    44    24    41    1
    45    24    42    1
@<TRIPOS>SUBSTRUCTURE
     1 ZINC001078748831        1 TEMP              0 ****  ****    0 ROOT


##########                                Name:    ZINC000123469372
##########                DOCK_Rotatable_Bonds:                   7
##########                         Heavy_Atoms:                  25
##########                    Molecular_Weight:             341.382
##########                DOCK_Rotatable_Bonds:                   7
##########                       Formal_Charge:          -0.0300001
##########                     HBond_Acceptors:                   5
##########                        HBond_Donors:                   2
##########                         Heavy_Atoms:                  25
##########                          Grid_Score:          -30.826456
##########                     Grid_vdw_energy:          -29.449509
##########                      Grid_es_energy:           -1.376947
##########           Internal_energy_repulsive:            9.670316

@<TRIPOS>MOLECULE
ZINC000123469372
 45 47 1 0 0
SMALL
USER_CHARGES


@<TRIPOS>ATOM
      1 C1          0.7027   -0.1267   49.5122 C.3     1  ZINC000123469372   -0.1700
      2 C2         -0.2124    0.6532   48.5659 C.3     1  ZINC000123469372    0.1500
      3 H3          0.2671    1.5919   48.2884 H       1  ZINC000123469372    0.0900
      4 C4         -0.4728   -0.1780   47.3081 C.3     1  ZINC000123469372   -0.1600
      5 C5         -1.1792    0.6871   46.2624 C.3     1  ZINC000123469372    0.1500
      6 H6         -2.0776    1.1236   46.6989 H       1  ZINC000123469372    0.1100
      7 O7         -1.5390   -0.1208   45.1400 O.3     1  ZINC000123469372   -0.5500
      8 C8         -0.2534    1.7880   45.8127 C.ar    1  ZINC000123469372   -0.1200
      9 C9          0.7219    1.5281   44.8683 C.ar    1  ZINC000123469372   -0.1100
     10 C10         1.5712    2.5379   44.4557 C.ar    1  ZINC000123469372   -0.1200
     11 C11         1.4448    3.8076   44.9875 C.ar    1  ZINC000123469372   -0.1200
     12 C12         0.4688    4.0677   45.9313 C.ar    1  ZINC000123469372   -0.1200
     13 C13        -0.3832    3.0590   46.3407 C.ar    1  ZINC000123469372   -0.1100
     14 N14        -1.4838    0.9342   49.2374 N.am    1  ZINC000123469372   -0.7100
     15 C15        -1.6600    2.1031   49.8847 C.2     1  ZINC000123469372    0.5700
     16 O16        -0.7624    2.9248   49.9126 O.2     1  ZINC000123469372   -0.5400
     17 C17        -2.9298    2.3844   50.5535 C.2     1  ZINC000123469372   -0.2200
     18 C18        -3.9665    1.5180   50.4389 C.2     1  ZINC000123469372    0.0000
     19 C19        -5.2271    1.8602   51.1158 C.ar    1  ZINC000123469372   -0.1200
     20 C20        -6.2185    0.9048   51.3343 C.ar    1  ZINC000123469372   -0.0900
     21 C21        -7.3873    1.2712   51.9739 C.ar    1  ZINC000123469372    0.0700
     22 F22        -8.3527    0.3511   52.1897 F       1  ZINC000123469372   -0.1400
     23 C23        -7.5736    2.5794   52.3960 C.ar    1  ZINC000123469372   -0.1100
     24 C24        -6.5958    3.5338   52.1832 C.ar    1  ZINC000123469372   -0.1200
     25 C25        -5.4195    3.1851   51.5450 C.ar    1  ZINC000123469372    0.1300
     26 O26        -4.4422    4.0983   51.3212 O.3     1  ZINC000123469372   -0.3000
     27 C27        -3.0897    3.6351   51.3781 C.3     1  ZINC000123469372    0.1100
     28 H28         1.6486   -0.3358   49.0126 H       1  ZINC000123469372    0.0700
     29 H29         0.8881    0.4654   50.4083 H       1  ZINC000123469372    0.0600
     30 H30         0.2232   -1.0654   49.7898 H       1  ZINC000123469372    0.0600
     31 H31         0.4753   -0.5337   46.9049 H       1  ZINC000123469372    0.0900
     32 H32        -1.1033   -1.0307   47.5601 H       1  ZINC000123469372    0.0800
     33 H33        -2.1525    0.3078   44.5275 H       1  ZINC000123469372    0.3700
     34 H34         0.8207    0.5361   44.4529 H       1  ZINC000123469372    0.1200
     35 H35         2.3337    2.3346   43.7184 H       1  ZINC000123469372    0.1200
     36 H36         2.1087    4.5963   44.6658 H       1  ZINC000123469372    0.1200
     37 H37         0.3703    5.0597   46.3469 H       1  ZINC000123469372    0.1200
     38 H38        -1.1457    3.2622   47.0780 H       1  ZINC000123469372    0.1200
     39 H39        -2.1986    0.2789   49.2163 H       1  ZINC000123469372    0.4000
     40 H40        -3.8700    0.6059   49.8685 H       1  ZINC000123469372    0.1500
     41 H41        -6.0743   -0.1139   51.0058 H       1  ZINC000123469372    0.1500
     42 H42        -8.4908    2.8551   52.8949 H       1  ZINC000123469372    0.1500
     43 H43        -6.7504    4.5499   52.5148 H       1  ZINC000123469372    0.1500
     44 H44        -2.8231    3.4277   52.4144 H       1  ZINC000123469372    0.0800
     45 H45        -2.4275    4.4074   50.9866 H       1  ZINC000123469372    0.1100
@<TRIPOS>BOND
     1     1     2    1
     2     1    28    1
     3     1    29    1
     4     1    30    1
     5     2     3    1
     6     2     4    1
     7     2    14    1
     8     4     5    1
     9     4    31    1
    10     4    32    1
    11     5     6    1
    12     5     7    1
    13     5     8    1
    14     7    33    1
    15     8    13   ar
    16     8     9   ar
    17     9    10   ar
    18     9    34    1
    19    10    11   ar
    20    10    35    1
    21    11    12   ar
    22    11    36    1
    23    12    13   ar
    24    12    37    1
    25    13    38    1
    26    14    15   am
    27    14    39    1
    28    15    16    2
    29    15    17    1
    30    17    27    1
    31    17    18    2
    32    18    19    1
    33    18    40    1
    34    19    25   ar
    35    19    20   ar
    36    20    21   ar
    37    20    41    1
    38    21    22    1
    39    21    23   ar
    40    23    24   ar
    41    23    42    1
    42    24    25   ar
    43    24    43    1
    44    25    26    1
    45    26    27    1
    46    27    44    1
    47    27    45    1
@<TRIPOS>SUBSTRUCTURE
     1 ZINC000123469372        1 TEMP              0 ****  ****    0 ROOT


##########                                Name:    ZINC000970996691
##########                DOCK_Rotatable_Bonds:                   7
##########                         Heavy_Atoms:                  24
##########                    Molecular_Weight:             334.462
##########                DOCK_Rotatable_Bonds:                   7
##########                       Formal_Charge:          -0.0199999
##########                     HBond_Acceptors:                   6
##########                        HBond_Donors:                   0
##########                         Heavy_Atoms:                  24
##########                          Grid_Score:          -30.814304
##########                     Grid_vdw_energy:          -29.917540
##########                      Grid_es_energy:           -0.896764
##########           Internal_energy_repulsive:           10.490406

@<TRIPOS>MOLECULE
ZINC000970996691
 54 56 1 0 0
SMALL
USER_CHARGES


@<TRIPOS>ATOM
      1 C1        -12.5310   -0.3587   53.1782 C.3     1  ZINC000970996691   -0.1500
      2 C2        -11.3856   -0.4530   52.1684 C.3     1  ZINC000970996691   -0.1200
      3 C3        -10.0483   -0.3223   52.9002 C.3     1  ZINC000970996691   -0.0300
      4 C4         -9.5568    1.0986   52.7984 C.2     1  ZINC000970996691    0.1800
      5 N5         -8.4245    1.4974   52.2708 N.2     1  ZINC000970996691   -0.4700
      6 C6         -8.4153    2.8359   52.4024 C.2     1  ZINC000970996691    0.1800
      7 C7         -7.3226    3.7692   51.9487 C.3     1  ZINC000970996691    0.1500
      8 N8         -6.8819    3.3883   50.6002 N.3     1  ZINC000970996691   -0.5200
      9 C9         -7.4474    4.2896   49.5874 C.3     1  ZINC000970996691    0.0200
     10 C10        -5.4156    3.3550   50.5154 C.3     1  ZINC000970996691    0.0700
     11 H11        -4.9904    4.3301   50.7529 H       1  ZINC000970996691    0.0600
     12 C12        -4.8301    2.2534   51.4377 C.3     1  ZINC000970996691   -0.1300
     13 C13        -3.4939    1.9014   50.7505 C.3     1  ZINC000970996691    0.1000
     14 N14        -3.6065    2.3093   49.3425 N.am    1  ZINC000970996691   -0.6200
     15 C15        -2.6408    2.1886   48.4101 C.2     1  ZINC000970996691    0.5300
     16 O16        -2.8451    2.5602   47.2738 O.2     1  ZINC000970996691   -0.5300
     17 C17        -1.3072    1.5917   48.7794 C.3     1  ZINC000970996691   -0.1000
     18 C18        -1.2147    0.1683   48.2261 C.3     1  ZINC000970996691   -0.1100
     19 C19         0.1393   -0.4376   48.6011 C.3     1  ZINC000970996691   -0.1200
     20 C20         1.2618    0.4148   48.0060 C.3     1  ZINC000970996691   -0.1200
     21 C21         1.1693    1.8383   48.5593 C.3     1  ZINC000970996691   -0.1200
     22 C22        -0.1846    2.4442   48.1843 C.3     1  ZINC000970996691   -0.1000
     23 C23        -4.9512    2.8720   49.1187 C.3     1  ZINC000970996691    0.1200
     24 N24        -9.5219    3.1765   52.9924 N.2     1  ZINC000970996691   -0.3800
     25 O25       -10.1944    2.1937   53.2231 O.3     1  ZINC000970996691    0.0800
     26 H26       -12.4373   -1.1611   53.9100 H       1  ZINC000970996691    0.0600
     27 H27       -12.4881    0.6042   53.6874 H       1  ZINC000970996691    0.0600
     28 H28       -13.4838   -0.4519   52.6569 H       1  ZINC000970996691    0.0600
     29 H29       -11.4285   -1.4159   51.6592 H       1  ZINC000970996691    0.0700
     30 H30       -11.4793    0.3494   51.4366 H       1  ZINC000970996691    0.0700
     31 H31       -10.1811   -0.5865   53.9493 H       1  ZINC000970996691    0.1100
     32 H32        -9.3186   -0.9926   52.4462 H       1  ZINC000970996691    0.1000
     33 H33        -7.7013    4.7912   51.9323 H       1  ZINC000970996691    0.0700
     34 H34        -6.4805    3.7049   52.6379 H       1  ZINC000970996691    0.1100
     35 H35        -7.1210    5.3103   49.7865 H       1  ZINC000970996691    0.0300
     36 H36        -7.1052    3.9851   48.5984 H       1  ZINC000970996691    0.0800
     37 H37        -8.5358    4.2420   49.6259 H       1  ZINC000970996691    0.0700
     38 H38        -4.6570    2.6423   52.4411 H       1  ZINC000970996691    0.0800
     39 H39        -5.4887    1.3853   51.4678 H       1  ZINC000970996691    0.0900
     40 H40        -2.6773    2.4421   51.2289 H       1  ZINC000970996691    0.0700
     41 H41        -3.3167    0.8276   50.8123 H       1  ZINC000970996691    0.0700
     42 H42        -1.2084    1.5669   49.8646 H       1  ZINC000970996691    0.0900
     43 H43        -2.0145   -0.4390   48.6501 H       1  ZINC000970996691    0.0700
     44 H44        -1.3136    0.1931   47.1409 H       1  ZINC000970996691    0.0700
     45 H45         0.2382   -0.4624   49.6862 H       1  ZINC000970996691    0.0600
     46 H46         0.2051   -1.4517   48.2069 H       1  ZINC000970996691    0.0700
     47 H47         2.2264   -0.0168   48.2732 H       1  ZINC000970996691    0.0600
     48 H48         1.1628    0.4397   46.9208 H       1  ZINC000970996691    0.0600
     49 H49         1.2682    1.8134   49.6445 H       1  ZINC000970996691    0.0600
     50 H50         1.9690    2.4456   48.1354 H       1  ZINC000970996691    0.0700
     51 H51        -0.2836    2.4691   47.0991 H       1  ZINC000970996691    0.0800
     52 H52        -0.2506    3.4583   48.5786 H       1  ZINC000970996691    0.0600
     53 H53        -5.6256    2.1039   48.7401 H       1  ZINC000970996691    0.0800
     54 H54        -4.9008    3.7101   48.4236 H       1  ZINC000970996691    0.0800
@<TRIPOS>BOND
     1     1     2    1
     2     1    26    1
     3     1    27    1
     4     1    28    1
     5     2     3    1
     6     2    29    1
     7     2    30    1
     8     3     4    1
     9     3    31    1
    10     3    32    1
    11     4    25    1
    12     4     5    2
    13     5     6    1
    14     6     7    1
    15     6    24    2
    16     7     8    1
    17     7    33    1
    18     7    34    1
    19     8     9    1
    20     8    10    1
    21     9    35    1
    22     9    36    1
    23     9    37    1
    24    10    11    1
    25    10    23    1
    26    10    12    1
    27    12    13    1
    28    12    38    1
    29    12    39    1
    30    13    14    1
    31    13    40    1
    32    13    41    1
    33    14    15   am
    34    14    23    1
    35    15    16    2
    36    15    17    1
    37    17    22    1
    38    17    18    1
    39    17    42    1
    40    18    19    1
    41    18    43    1
    42    18    44    1
    43    19    20    1
    44    19    45    1
    45    19    46    1
    46    20    21    1
    47    20    47    1
    48    20    48    1
    49    21    22    1
    50    21    49    1
    51    21    50    1
    52    22    51    1
    53    22    52    1
    54    23    53    1
    55    23    54    1
    56    24    25    1
@<TRIPOS>SUBSTRUCTURE
     1 ZINC000970996691        1 TEMP              0 ****  ****    0 ROOT


##########                                Name:    ZINC000291574087
##########                DOCK_Rotatable_Bonds:                   8
##########                         Heavy_Atoms:                  23
##########                    Molecular_Weight:             387.249
##########                DOCK_Rotatable_Bonds:                   8
##########                       Formal_Charge:          -0.0400007
##########                     HBond_Acceptors:                   6
##########                        HBond_Donors:                   2
##########                         Heavy_Atoms:                  23
##########                          Grid_Score:          -30.813955
##########                     Grid_vdw_energy:          -29.679087
##########                      Grid_es_energy:           -1.134868
##########           Internal_energy_repulsive:           24.695436

@<TRIPOS>MOLECULE
ZINC000291574087
 43 44 1 0 0
SMALL
USER_CHARGES


@<TRIPOS>ATOM
      1 C1         -0.6108   -1.7459   48.9321 C.3     1  ZINC000291574087    0.0200
      2 O2         -1.1281   -0.7980   47.9961 O.3     1  ZINC000291574087   -0.3700
      3 C3         -0.4578    0.4639   48.0163 C.3     1  ZINC000291574087    0.1400
      4 C4          1.0553    0.2380   47.9952 C.3     1  ZINC000291574087   -0.1500
      5 C5         -0.8422    1.2253   49.2865 C.3     1  ZINC000291574087    0.0900
      6 N6         -2.2896    1.1322   49.4925 N.am    1  ZINC000291574087   -0.6900
      7 C7         -2.9541    2.1491   50.0762 C.2     1  ZINC000291574087    0.5100
      8 O8         -2.3531    3.1414   50.4325 O.2     1  ZINC000291574087   -0.5100
      9 C9         -4.4299    2.0549   50.2846 C.2     1  ZINC000291574087    0.5100
     10 O10        -5.1574    1.7729   49.3547 O.2     1  ZINC000291574087   -0.4900
     11 N11        -4.9540    2.2827   51.5052 N.am    1  ZINC000291574087   -0.6400
     12 C12        -6.3360    2.1944   51.7003 C.ar    1  ZINC000291574087    0.1300
     13 C13        -7.1030    3.3491   51.7769 C.ar    1  ZINC000291574087   -0.1000
     14 C14        -8.4681    3.2591   51.9692 C.ar    1  ZINC000291574087   -0.0400
     15 C15        -9.3004    4.5127   52.0522 C.3     1  ZINC000291574087   -0.1300
     16 C16        -9.0724    2.0201   52.0853 C.ar    1  ZINC000291574087   -0.0900
     17 Br17      -10.9415    1.9030   52.3472 Br      1  ZINC000291574087   -0.0300
     18 C18        -8.3122    0.8661   52.0096 C.ar    1  ZINC000291574087   -0.1000
     19 C19        -6.9463    0.9488   51.8124 C.ar    1  ZINC000291574087    0.0700
     20 F20        -6.2040   -0.1775   51.7386 F       1  ZINC000291574087   -0.1300
     21 C21        -0.8688    1.2794   46.7887 C.3     1  ZINC000291574087   -0.1900
     22 C22         0.2330    1.6814   45.8064 C.3     1  ZINC000291574087   -0.1700
     23 C23        -0.7750    0.5962   45.4229 C.3     1  ZINC000291574087   -0.1600
     24 H24        -1.1725   -2.6769   48.8544 H       1  ZINC000291574087    0.0900
     25 H25         0.4400   -1.9363   48.7133 H       1  ZINC000291574087    0.0400
     26 H26        -0.7053   -1.3477   49.9423 H       1  ZINC000291574087    0.0500
     27 H27         1.3291   -0.3045   47.0903 H       1  ZINC000291574087    0.0700
     28 H28         1.5665    1.2005   48.0106 H       1  ZINC000291574087    0.0800
     29 H29         1.3481   -0.3429   48.8698 H       1  ZINC000291574087    0.0700
     30 H30        -0.3248    0.7903   50.1415 H       1  ZINC000291574087    0.0900
     31 H31        -0.5567    2.2722   49.1831 H       1  ZINC000291574087    0.0800
     32 H32        -2.7698    0.3385   49.2087 H       1  ZINC000291574087    0.4200
     33 H33        -4.3727    2.5078   52.2483 H       1  ZINC000291574087    0.4300
     34 H34        -6.6327    4.3171   51.6864 H       1  ZINC000291574087    0.1600
     35 H35        -9.6427    4.7882   51.0547 H       1  ZINC000291574087    0.0800
     36 H36       -10.1620    4.3348   52.6957 H       1  ZINC000291574087    0.0800
     37 H37        -8.6985    5.3216   52.4662 H       1  ZINC000291574087    0.0800
     38 H38        -8.7868   -0.0997   52.1010 H       1  ZINC000291574087    0.1500
     39 H39        -1.6863    1.9834   46.9442 H       1  ZINC000291574087    0.1100
     40 H40         0.1408    2.6503   45.3154 H       1  ZINC000291574087    0.1000
     41 H41         1.2508    1.3650   46.0347 H       1  ZINC000291574087    0.1000
     42 H42        -0.4204   -0.4342   45.3989 H       1  ZINC000291574087    0.1000
     43 H43        -1.5305    0.8511   44.6798 H       1  ZINC000291574087    0.1000
@<TRIPOS>BOND
     1     1     2    1
     2     1    24    1
     3     1    25    1
     4     1    26    1
     5     2     3    1
     6     3     4    1
     7     3     5    1
     8     3    21    1
     9     4    27    1
    10     4    28    1
    11     4    29    1
    12     5     6    1
    13     5    30    1
    14     5    31    1
    15     6     7   am
    16     6    32    1
    17     7     8    2
    18     7     9    1
    19     9    10    2
    20     9    11   am
    21    11    12    1
    22    11    33    1
    23    12    19   ar
    24    12    13   ar
    25    13    14   ar
    26    13    34    1
    27    14    15    1
    28    14    16   ar
    29    15    35    1
    30    15    36    1
    31    15    37    1
    32    16    17    1
    33    16    18   ar
    34    18    19   ar
    35    18    38    1
    36    19    20    1
    37    21    23    1
    38    21    22    1
    39    21    39    1
    40    22    23    1
    41    22    40    1
    42    22    41    1
    43    23    42    1
    44    23    43    1
@<TRIPOS>SUBSTRUCTURE
     1 ZINC000291574087        1 TEMP              0 ****  ****    0 ROOT


##########                                Name:    ZINC000880838037
##########                DOCK_Rotatable_Bonds:                   9
##########                         Heavy_Atoms:                  24
##########                    Molecular_Weight:             365.477
##########                DOCK_Rotatable_Bonds:                   9
##########                       Formal_Charge:           0.0200001
##########                     HBond_Acceptors:                   8
##########                        HBond_Donors:                   3
##########                         Heavy_Atoms:                  24
##########                          Grid_Score:          -30.802790
##########                     Grid_vdw_energy:          -29.512625
##########                      Grid_es_energy:           -1.290164
##########           Internal_energy_repulsive:           11.018405

@<TRIPOS>MOLECULE
ZINC000880838037
 43 44 1 0 0
SMALL
USER_CHARGES


@<TRIPOS>ATOM
      1 C1        -10.5451    0.6009   54.6149 C.3     1  ZINC000880838037    0.0300
      2 O2        -10.1820    1.1520   53.3473 O.3     1  ZINC000880838037   -0.3100
      3 C3         -8.9860    0.7693   52.8280 C.ar    1  ZINC000880838037    0.1400
      4 C4         -8.8811   -0.4288   52.1358 C.ar    1  ZINC000880838037   -0.2200
      5 C5         -7.6653   -0.8194   51.6071 C.ar    1  ZINC000880838037   -0.0700
      6 C6         -6.5508   -0.0190   51.7664 C.ar    1  ZINC000880838037   -0.1500
      7 C7         -6.6499    1.1813   52.4588 C.ar    1  ZINC000880838037    0.1800
      8 N8         -5.5210    1.9922   52.6202 N.am    1  ZINC000880838037   -0.6700
      9 C9         -5.1867    2.8801   51.6630 C.2     1  ZINC000880838037    0.5200
     10 O10        -5.8643    2.9763   50.6617 O.2     1  ZINC000880838037   -0.4900
     11 C11        -3.9709    3.7533   51.8368 C.3     1  ZINC000880838037   -0.0600
     12 C12        -2.8143    3.1620   51.0727 C.2     1  ZINC000880838037    0.1000
     13 C13        -1.5494    3.2750   51.4790 C.2     1  ZINC000880838037   -0.2600
     14 S14        -0.5228    2.4496   50.3092 S.3     1  ZINC000880838037    0.1300
     15 C15        -1.8973    2.0304   49.3828 C.2     1  ZINC000880838037    0.0100
     16 S16        -1.8601    1.1079   47.8820 S.3     1  ZINC000880838037    0.1000
     17 C17        -0.0943    0.7202   47.7951 C.3     1  ZINC000880838037   -0.1500
     18 H18         0.3155    0.6642   48.8036 H       1  ZINC000880838037    0.1200
     19 C19         0.6303    1.8156   47.0102 C.3     1  ZINC000880838037   -0.1500
     20 C20         0.0958   -0.6041   47.1014 C.2     1  ZINC000880838037    0.5400
     21 N21         0.2799   -1.7247   47.8273 N.am    1  ZINC000880838037   -0.8400
     22 O22         0.0830   -0.6615   45.8901 O.2     1  ZINC000880838037   -0.5200
     23 N23        -2.9725    2.4853   49.9492 N.2     1  ZINC000880838037   -0.4200
     24 C24        -7.8712    1.5782   52.9846 C.ar    1  ZINC000880838037   -0.1500
     25 C25        -7.9824    2.8796   53.7363 C.3     1  ZINC000880838037   -0.1000
     26 H26        -9.7997    0.8802   55.3594 H       1  ZINC000880838037    0.0600
     27 H27       -11.5197    0.9875   54.9134 H       1  ZINC000880838037    0.1000
     28 H28       -10.5931   -0.4854   54.5385 H       1  ZINC000880838037    0.0600
     29 H29        -9.7506   -1.0570   52.0104 H       1  ZINC000880838037    0.1300
     30 H30        -7.5863   -1.7523   51.0689 H       1  ZINC000880838037    0.1300
     31 H31        -5.6019   -0.3267   51.3526 H       1  ZINC000880838037    0.1400
     32 H32        -4.9791    1.9152   53.4210 H       1  ZINC000880838037    0.4100
     33 H33        -4.1840    4.7527   51.4574 H       1  ZINC000880838037    0.1200
     34 H34        -3.7148    3.8132   52.8945 H       1  ZINC000880838037    0.1200
     35 H35        -1.2127    3.7842   52.3698 H       1  ZINC000880838037    0.1800
     36 H36         0.2206    1.8716   46.0017 H       1  ZINC000880838037    0.0900
     37 H37         0.4929    2.7735   47.5119 H       1  ZINC000880838037    0.0800
     38 H38         1.6937    1.5821   46.9579 H       1  ZINC000880838037    0.0800
     39 H39         0.4034   -2.5770   47.3809 H       1  ZINC000880838037    0.4000
     40 H40         0.2890   -1.6789   48.7962 H       1  ZINC000880838037    0.4100
     41 H41        -8.2282    3.6814   53.0401 H       1  ZINC000880838037    0.0700
     42 H42        -8.7667    2.7986   54.4889 H       1  ZINC000880838037    0.0700
     43 H43        -7.0326    3.1000   54.2236 H       1  ZINC000880838037    0.0600
@<TRIPOS>BOND
     1     1     2    1
     2     1    26    1
     3     1    27    1
     4     1    28    1
     5     2     3    1
     6     3    24   ar
     7     3     4   ar
     8     4     5   ar
     9     4    29    1
    10     5     6   ar
    11     5    30    1
    12     6     7   ar
    13     6    31    1
    14     7     8    1
    15     7    24   ar
    16     8     9   am
    17     8    32    1
    18     9    10    2
    19     9    11    1
    20    11    12    1
    21    11    33    1
    22    11    34    1
    23    12    23    1
    24    12    13    2
    25    13    14    1
    26    13    35    1
    27    14    15    1
    28    15    16    1
    29    15    23    2
    30    16    17    1
    31    17    18    1
    32    17    19    1
    33    17    20    1
    34    19    36    1
    35    19    37    1
    36    19    38    1
    37    20    21   am
    38    20    22    2
    39    21    39    1
    40    21    40    1
    41    24    25    1
    42    25    41    1
    43    25    42    1
    44    25    43    1
@<TRIPOS>SUBSTRUCTURE
     1 ZINC000880838037        1 TEMP              0 ****  ****    0 ROOT


##########                                Name:    ZINC000762020937
##########                DOCK_Rotatable_Bonds:                  10
##########                         Heavy_Atoms:                  28
##########                    Molecular_Weight:             391.467
##########                DOCK_Rotatable_Bonds:                  10
##########                       Formal_Charge:         -1.8999e-07
##########                     HBond_Acceptors:                   8
##########                        HBond_Donors:                   1
##########                         Heavy_Atoms:                  28
##########                          Grid_Score:          -30.799936
##########                     Grid_vdw_energy:          -29.421860
##########                      Grid_es_energy:           -1.378077
##########           Internal_energy_repulsive:           60.911713

@<TRIPOS>MOLECULE
ZINC000762020937
 57 58 1 0 0
SMALL
USER_CHARGES


@<TRIPOS>ATOM
      1 C1         -8.0672    4.4382   50.1614 C.3     1  ZINC000762020937    0.0200
      2 O2         -8.3720    4.2209   51.5406 O.3     1  ZINC000762020937   -0.3000
      3 C3         -8.8509    2.9946   51.8812 C.ar    1  ZINC000762020937    0.1100
      4 C4        -10.2087    2.8118   52.0857 C.ar    1  ZINC000762020937   -0.1700
      5 C5        -10.6941    1.5640   52.4316 C.ar    1  ZINC000762020937   -0.1000
      6 C6         -9.8272    0.4972   52.5745 C.ar    1  ZINC000762020937   -0.1000
      7 C7        -10.3615   -0.8604   52.9520 C.3     1  ZINC000762020937    0.0200
      8 C8        -10.7774   -0.8516   54.4004 C.2     1  ZINC000762020937    0.1900
      9 N9        -11.1962   -1.8793   55.0990 N.2     1  ZINC000762020937   -0.4700
     10 C10       -11.4501   -1.4009   56.3300 C.2     1  ZINC000762020937    0.1600
     11 C11       -11.9569   -2.1931   57.5076 C.3     1  ZINC000762020937    0.2600
     12 H12       -12.2180   -3.2003   57.1828 H       1  ZINC000762020937    0.1200
     13 N13       -10.9129   -2.2660   58.5328 N.am    1  ZINC000762020937   -0.7100
     14 C14       -10.5132   -1.1467   59.1685 C.2     1  ZINC000762020937    0.6600
     15 O15       -11.0198   -0.0773   58.8922 O.2     1  ZINC000762020937   -0.5600
     16 O16        -9.5527   -1.2135   60.1095 O.3     1  ZINC000762020937   -0.3600
     17 C17        -9.2144    0.0210   60.7949 C.3     1  ZINC000762020937    0.1400
     18 C18        -8.6906    1.0403   59.7812 C.3     1  ZINC000762020937   -0.1800
     19 C19       -10.4612    0.5805   61.4830 C.3     1  ZINC000762020937   -0.1400
     20 C20        -8.1349   -0.2568   61.8430 C.3     1  ZINC000762020937   -0.1800
     21 C21       -13.1951   -1.5075   58.0886 C.3     1  ZINC000762020937   -0.1000
     22 C22       -14.3584   -1.6351   57.1030 C.3     1  ZINC000762020937   -0.1400
     23 C23       -13.5732   -2.1742   59.4128 C.3     1  ZINC000762020937   -0.1400
     24 N24       -11.1777   -0.1304   56.3178 N.2     1  ZINC000762020937   -0.3700
     25 O25       -10.7843    0.2040   55.2201 O.3     1  ZINC000762020937    0.0900
     26 C26        -8.4707    0.6727   52.3714 C.ar    1  ZINC000762020937   -0.1500
     27 C27        -7.9784    1.9188   52.0196 C.ar    1  ZINC000762020937    0.1000
     28 O28        -6.6447    2.0930   51.8195 O.3     1  ZINC000762020937   -0.3100
     29 C29        -5.8006    2.0168   52.9701 C.3     1  ZINC000762020937    0.0200
     30 H30        -7.3058    3.7271   49.8411 H       1  ZINC000762020937    0.0600
     31 H31        -8.9683    4.2994   49.5639 H       1  ZINC000762020937    0.0600
     32 H32        -7.6952    5.4540   50.0272 H       1  ZINC000762020937    0.1000
     33 H33       -10.8882    3.6440   51.9753 H       1  ZINC000762020937    0.1400
     34 H34       -11.7530    1.4230   52.5907 H       1  ZINC000762020937    0.1300
     35 H35       -11.2230   -1.0982   52.3280 H       1  ZINC000762020937    0.1200
     36 H36        -9.5855   -1.6110   52.8014 H       1  ZINC000762020937    0.1200
     37 H37       -10.5094   -3.1198   58.7542 H       1  ZINC000762020937    0.4100
     38 H38        -9.4596    1.2382   59.0345 H       1  ZINC000762020937    0.0600
     39 H39        -8.4366    1.9670   60.2957 H       1  ZINC000762020937    0.0700
     40 H40        -7.8023    0.6416   59.2910 H       1  ZINC000762020937    0.0900
     41 H41       -10.8344   -0.1456   62.2052 H       1  ZINC000762020937    0.0700
     42 H42       -10.2073    1.5073   61.9975 H       1  ZINC000762020937    0.0800
     43 H43       -11.2301    0.7785   60.7363 H       1  ZINC000762020937    0.0700
     44 H44        -7.2467   -0.6555   61.3529 H       1  ZINC000762020937    0.0900
     45 H45        -7.8810    0.6699   62.3576 H       1  ZINC000762020937    0.0700
     46 H46        -8.5081   -0.9829   62.5653 H       1  ZINC000762020937    0.0600
     47 H47       -12.9793   -0.4531   58.2613 H       1  ZINC000762020937    0.0800
     48 H48       -14.5743   -2.6895   56.9303 H       1  ZINC000762020937    0.0600
     49 H49       -15.2406   -1.1467   57.5170 H       1  ZINC000762020937    0.0600
     50 H50       -14.0891   -1.1601   56.1597 H       1  ZINC000762020937    0.0500
     51 H51       -12.7444   -2.0833   60.1150 H       1  ZINC000762020937    0.0500
     52 H52       -14.4553   -1.6858   59.8267 H       1  ZINC000762020937    0.0600
     53 H53       -13.7890   -3.2285   59.2401 H       1  ZINC000762020937    0.0700
     54 H54        -7.7954   -0.1627   52.4836 H       1  ZINC000762020937    0.1400
     55 H55        -5.9018    1.0340   53.4305 H       1  ZINC000762020937    0.0600
     56 H56        -4.7641    2.1732   52.6714 H       1  ZINC000762020937    0.1000
     57 H57        -6.0922    2.7852   53.6861 H       1  ZINC000762020937    0.0600
@<TRIPOS>BOND
     1     1     2    1
     2     1    30    1
     3     1    31    1
     4     1    32    1
     5     2     3    1
     6     3    27   ar
     7     3     4   ar
     8     4     5   ar
     9     4    33    1
    10     5     6   ar
    11     5    34    1
    12     6     7    1
    13     6    26   ar
    14     7     8    1
    15     7    35    1
    16     7    36    1
    17     8    25    1
    18     8     9    2
    19     9    10    1
    20    10    11    1
    21    10    24    2
    22    11    12    1
    23    11    13    1
    24    11    21    1
    25    13    14   am
    26    13    37    1
    27    14    15    2
    28    14    16    1
    29    16    17    1
    30    17    18    1
    31    17    19    1
    32    17    20    1
    33    18    38    1
    34    18    39    1
    35    18    40    1
    36    19    41    1
    37    19    42    1
    38    19    43    1
    39    20    44    1
    40    20    45    1
    41    20    46    1
    42    21    22    1
    43    21    23    1
    44    21    47    1
    45    22    48    1
    46    22    49    1
    47    22    50    1
    48    23    51    1
    49    23    52    1
    50    23    53    1
    51    24    25    1
    52    26    27   ar
    53    26    54    1
    54    27    28    1
    55    28    29    1
    56    29    55    1
    57    29    56    1
    58    29    57    1
@<TRIPOS>SUBSTRUCTURE
     1 ZINC000762020937        1 TEMP              0 ****  ****    0 ROOT


##########                                Name:    ZINC000470948647
##########                DOCK_Rotatable_Bonds:                   6
##########                         Heavy_Atoms:                  29
##########                    Molecular_Weight:             412.556
##########                DOCK_Rotatable_Bonds:                   6
##########                       Formal_Charge:           0.0100001
##########                     HBond_Acceptors:                   7
##########                        HBond_Donors:                   1
##########                         Heavy_Atoms:                  29
##########                          Grid_Score:          -30.781410
##########                     Grid_vdw_energy:          -29.496176
##########                      Grid_es_energy:           -1.285234
##########           Internal_energy_repulsive:           15.627777

@<TRIPOS>MOLECULE
ZINC000470948647
 57 60 1 0 0
SMALL
USER_CHARGES


@<TRIPOS>ATOM
      1 C1         -8.1909    0.1384   62.0273 C.3     1  ZINC000470948647   -0.1100
      2 C2         -9.1447   -0.1791   60.9046 C.ar    1  ZINC000470948647   -0.1000
      3 C3         -8.7828    0.0851   59.5966 C.ar    1  ZINC000470948647   -0.1100
      4 C4         -9.6548   -0.2048   58.5652 C.ar    1  ZINC000470948647   -0.1100
      5 C5        -10.8956   -0.7623   58.8431 C.ar    1  ZINC000470948647    0.1400
      6 N6        -11.7811   -1.0575   57.8006 N.am    1  ZINC000470948647   -0.6700
      7 C7        -11.8605   -2.3139   57.3194 C.2     1  ZINC000470948647    0.5100
      8 O8        -11.1645   -3.1887   57.7900 O.2     1  ZINC000470948647   -0.4800
      9 C9        -12.8141   -2.6319   56.1966 C.3     1  ZINC000470948647    0.1200
     10 H10       -12.5569   -3.6080   55.7856 H       1  ZINC000470948647    0.1200
     11 C11       -14.2494   -2.6951   56.7666 C.3     1  ZINC000470948647   -0.0700
     12 S12       -14.8774   -1.0136   56.3530 S.3     1  ZINC000470948647   -0.2500
     13 C13       -13.8827   -0.8841   54.8096 C.3     1  ZINC000470948647    0.1600
     14 N14       -12.6594   -1.6295   55.1535 N.am    1  ZINC000470948647   -0.6000
     15 C15       -11.4792   -1.4022   54.5435 C.2     1  ZINC000470948647    0.6300
     16 O16       -10.4971   -2.0444   54.8615 O.2     1  ZINC000470948647   -0.5100
     17 C17       -11.3789   -0.3731   53.4887 C.2     1  ZINC000470948647   -0.0100
     18 N18       -12.2912   -0.0894   52.5805 N.2     1  ZINC000470948647   -0.2700
     19 N19       -11.8761    0.8592   51.8202 N.pl3   1  ZINC000470948647   -0.2700
     20 C20       -12.6328    1.4291   50.7025 C.3     1  ZINC000470948647    0.1500
     21 C21       -13.2214    0.2987   49.8560 C.3     1  ZINC000470948647   -0.1300
     22 C22       -14.0117    0.8939   48.6889 C.3     1  ZINC000470948647   -0.1200
     23 C23       -15.1444    1.7669   49.2325 C.3     1  ZINC000470948647   -0.1300
     24 C24       -14.5558    2.8973   50.0791 C.3     1  ZINC000470948647   -0.1200
     25 C25       -13.7656    2.3022   51.2462 C.3     1  ZINC000470948647   -0.1300
     26 C26       -10.6422    1.2557   52.1993 C.2     1  ZINC000470948647   -0.0100
     27 C27       -10.2881    0.4999   53.2650 C.2     1  ZINC000470948647   -0.1700
     28 C28       -11.2560   -1.0269   60.1582 C.ar    1  ZINC000470948647   -0.1100
     29 C29       -12.6016   -1.6324   60.4643 C.3     1  ZINC000470948647   -0.1100
     30 C30       -10.3778   -0.7393   61.1843 C.ar    1  ZINC000470948647   -0.1000
     31 H31        -7.5525   -0.7247   62.2168 H       1  ZINC000470948647    0.0700
     32 H32        -7.5737    0.9927   61.7491 H       1  ZINC000470948647    0.0700
     33 H33        -8.7565    0.3767   62.9281 H       1  ZINC000470948647    0.0700
     34 H34        -7.8175    0.5187   59.3810 H       1  ZINC000470948647    0.1200
     35 H35        -9.3718    0.0025   57.5437 H       1  ZINC000470948647    0.1400
     36 H36       -12.3378   -0.3579   57.4243 H       1  ZINC000470948647    0.4100
     37 H37       -14.8357   -3.4660   56.2664 H       1  ZINC000470948647    0.1200
     38 H38       -14.2359   -2.8539   57.8449 H       1  ZINC000470948647    0.1200
     39 H39       -14.4019   -1.3544   53.9745 H       1  ZINC000470948647    0.1000
     40 H40       -13.6508    0.1571   54.5852 H       1  ZINC000470948647    0.1400
     41 H41       -11.9695    2.0366   50.0868 H       1  ZINC000470948647    0.1100
     42 H42       -12.4144   -0.3233   49.4688 H       1  ZINC000470948647    0.0800
     43 H43       -13.8848   -0.3087   50.4718 H       1  ZINC000470948647    0.0800
     44 H44       -13.3483    1.5013   48.0732 H       1  ZINC000470948647    0.0700
     45 H45       -14.4310    0.0885   48.0859 H       1  ZINC000470948647    0.0800
     46 H46       -15.7074    2.1909   48.4011 H       1  ZINC000470948647    0.0700
     47 H47       -15.8078    1.1595   49.8483 H       1  ZINC000470948647    0.0700
     48 H48       -13.8924    3.5047   49.4633 H       1  ZINC000470948647    0.0700
     49 H49       -15.3629    3.5193   50.4663 H       1  ZINC000470948647    0.0700
     50 H50       -14.4289    1.6947   51.8619 H       1  ZINC000470948647    0.0700
     51 H51       -13.3462    3.1075   51.8493 H       1  ZINC000470948647    0.0700
     52 H52       -10.0504    2.0341   51.7408 H       1  ZINC000470948647    0.1800
     53 H53        -9.3644    0.5481   53.8224 H       1  ZINC000470948647    0.1600
     54 H54       -12.5203   -2.7193   60.4600 H       1  ZINC000470948647    0.0700
     55 H55       -12.9361   -1.2970   61.4460 H       1  ZINC000470948647    0.0700
     56 H56       -13.3216   -1.3189   59.7084 H       1  ZINC000470948647    0.0600
     57 H57       -10.6573   -0.9450   62.2070 H       1  ZINC000470948647    0.1300
@<TRIPOS>BOND
     1     1     2    1
     2     1    31    1
     3     1    32    1
     4     1    33    1
     5     2    30   ar
     6     2     3   ar
     7     3     4   ar
     8     3    34    1
     9     4     5   ar
    10     4    35    1
    11     5     6    1
    12     5    28   ar
    13     6     7   am
    14     6    36    1
    15     7     8    2
    16     7     9    1
    17     9    10    1
    18     9    14    1
    19     9    11    1
    20    11    12    1
    21    11    37    1
    22    11    38    1
    23    12    13    1
    24    13    14    1
    25    13    39    1
    26    13    40    1
    27    14    15   am
    28    15    16    2
    29    15    17    1
    30    17    27    1
    31    17    18    2
    32    18    19    1
    33    19    20    1
    34    19    26    1
    35    20    25    1
    36    20    21    1
    37    20    41    1
    38    21    22    1
    39    21    42    1
    40    21    43    1
    41    22    23    1
    42    22    44    1
    43    22    45    1
    44    23    24    1
    45    23    46    1
    46    23    47    1
    47    24    25    1
    48    24    48    1
    49    24    49    1
    50    25    50    1
    51    25    51    1
    52    26    27    2
    53    26    52    1
    54    27    53    1
    55    28    29    1
    56    28    30   ar
    57    29    54    1
    58    29    55    1
    59    29    56    1
    60    30    57    1
@<TRIPOS>SUBSTRUCTURE
     1 ZINC000470948647        1 TEMP              0 ****  ****    0 ROOT


##########                                Name:    ZINC000281092425
##########                DOCK_Rotatable_Bonds:                   8
##########                         Heavy_Atoms:                  23
##########                    Molecular_Weight:             332.304
##########                DOCK_Rotatable_Bonds:                   8
##########                       Formal_Charge:         2.98023e-08
##########                     HBond_Acceptors:                   9
##########                        HBond_Donors:                   2
##########                         Heavy_Atoms:                  23
##########                          Grid_Score:          -30.778595
##########                     Grid_vdw_energy:          -29.089508
##########                      Grid_es_energy:           -1.689086
##########           Internal_energy_repulsive:           22.711329

@<TRIPOS>MOLECULE
ZINC000281092425
 41 42 1 0 0
SMALL
USER_CHARGES


@<TRIPOS>ATOM
      1 O1         -0.3436   -1.2347   45.6164 O.2     1  ZINC000281092425   -0.1800
      2 N2         -0.4606   -0.0226   45.6467 N.pl3   1  ZINC000281092425    0.0400
      3 O3         -0.1434    0.6442   44.6781 O.2     1  ZINC000281092425   -0.1500
      4 C4         -0.9938    0.6392   46.8584 C.ar    1  ZINC000281092425   -0.1200
      5 C5         -1.3533   -0.1182   47.9567 C.ar    1  ZINC000281092425    0.0200
      6 C6         -1.8515    0.4959   49.0896 C.ar    1  ZINC000281092425   -0.2200
      7 C7         -1.9917    1.8776   49.1270 C.ar    1  ZINC000281092425    0.3000
      8 N8         -2.4949    2.4987   50.2723 N.pl3   1  ZINC000281092425   -0.7200
      9 C9         -3.6105    1.8932   51.0038 C.3     1  ZINC000281092425    0.1200
     10 C10        -4.7678    2.8906   51.0858 C.3     1  ZINC000281092425   -0.0900
     11 H11        -4.3811    3.9048   50.9863 H       1  ZINC000281092425    0.0900
     12 C12        -5.7629    2.6111   49.9578 C.3     1  ZINC000281092425    0.0800
     13 O13        -5.4289    3.4080   48.8196 O.3     1  ZINC000281092425   -0.5700
     14 C14        -5.4727    2.7439   52.4358 C.3     1  ZINC000281092425   -0.1100
     15 H15        -4.7501    2.7535   53.2519 H       1  ZINC000281092425    0.0900
     16 C16        -6.5375    3.8581   52.6274 C.3     1  ZINC000281092425   -0.1600
     17 C17        -7.5392    3.1484   53.5727 C.3     1  ZINC000281092425    0.0500
     18 O18        -7.5567    1.7786   53.1404 O.3     1  ZINC000281092425   -0.3900
     19 C19        -6.3265    1.4583   52.4729 C.3     1  ZINC000281092425    0.0700
     20 C20        -1.6306    2.6401   48.0245 C.ar    1  ZINC000281092425   -0.2800
     21 C21        -1.1267    2.0206   46.8919 C.ar    1  ZINC000281092425    0.2300
     22 O22        -0.7718    2.7642   45.8112 O.3     1  ZINC000281092425   -0.2900
     23 C23         0.4183    3.5469   45.9248 C.3     1  ZINC000281092425    0.4100
     24 F24         0.8835    3.8764   44.6471 F       1  ZINC000281092425   -0.1900
     25 F25         0.1396    4.7189   46.6362 F       1  ZINC000281092425   -0.1900
     26 H26        -1.2450   -1.1924   47.9293 H       1  ZINC000281092425    0.1600
     27 H27        -2.1324   -0.0984   49.9464 H       1  ZINC000281092425    0.1500
     28 H28        -2.1058    3.3309   50.5834 H       1  ZINC000281092425    0.4100
     29 H29        -3.9414    0.9947   50.4829 H       1  ZINC000281092425    0.0800
     30 H30        -3.2851    1.6306   52.0103 H       1  ZINC000281092425    0.0800
     31 H31        -5.7193    1.5559   49.6879 H       1  ZINC000281092425    0.0500
     32 H32        -6.7703    2.8593   50.2921 H       1  ZINC000281092425    0.0500
     33 H33        -6.0430    3.3125   48.0788 H       1  ZINC000281092425    0.3800
     34 H34        -6.1042    4.7380   53.1031 H       1  ZINC000281092425    0.0800
     35 H35        -7.0088    4.1183   51.6796 H       1  ZINC000281092425    0.0800
     36 H36        -7.1968    3.2147   54.6054 H       1  ZINC000281092425    0.0600
     37 H37        -8.5309    3.5894   53.4731 H       1  ZINC000281092425    0.0900
     38 H38        -6.5334    1.1254   51.4558 H       1  ZINC000281092425    0.0800
     39 H39        -5.8021    0.6748   53.0201 H       1  ZINC000281092425    0.0700
     40 H40        -1.7384    3.7144   48.0509 H       1  ZINC000281092425    0.1500
     41 H41         1.1809    2.9742   46.4526 H       1  ZINC000281092425    0.1900
@<TRIPOS>BOND
     1     1     2    2
     2     2     3    2
     3     2     4    1
     4     4    21   ar
     5     4     5   ar
     6     5     6   ar
     7     5    26    1
     8     6     7   ar
     9     6    27    1
    10     7     8    1
    11     7    20   ar
    12     8     9    1
    13     8    28    1
    14     9    10    1
    15     9    29    1
    16     9    30    1
    17    10    11    1
    18    10    12    1
    19    10    14    1
    20    12    13    1
    21    12    31    1
    22    12    32    1
    23    13    33    1
    24    14    15    1
    25    14    19    1
    26    14    16    1
    27    16    17    1
    28    16    34    1
    29    16    35    1
    30    17    18    1
    31    17    36    1
    32    17    37    1
    33    18    19    1
    34    19    38    1
    35    19    39    1
    36    20    21   ar
    37    20    40    1
    38    21    22    1
    39    22    23    1
    40    23    24    1
    41    23    25    1
    42    23    41    1
@<TRIPOS>SUBSTRUCTURE
     1 ZINC000281092425        1 TEMP              0 ****  ****    0 ROOT


##########                                Name:    ZINC000288921983
##########                DOCK_Rotatable_Bonds:                   6
##########                         Heavy_Atoms:                  26
##########                    Molecular_Weight:             356.428
##########                DOCK_Rotatable_Bonds:                   6
##########                       Formal_Charge:           0.0199997
##########                     HBond_Acceptors:                   8
##########                        HBond_Donors:                   1
##########                         Heavy_Atoms:                  26
##########                          Grid_Score:          -30.777191
##########                     Grid_vdw_energy:          -29.528009
##########                      Grid_es_energy:           -1.249182
##########           Internal_energy_repulsive:           64.797127

@<TRIPOS>MOLECULE
ZINC000288921983
 50 53 1 0 0
SMALL
USER_CHARGES


@<TRIPOS>ATOM
      1 C1         -2.6942    5.4954   56.4805 C.3     1  ZINC000288921983   -0.1400
      2 C2         -1.4967    6.1728   55.8112 C.3     1  ZINC000288921983   -0.0500
      3 C3         -1.0259    5.3311   54.6532 C.ar    1  ZINC000288921983    0.3000
      4 N4         -1.5366    5.5454   53.4573 N.ar    1  ZINC000288921983   -0.5000
      5 C5         -1.1498    4.8282   52.4153 C.ar    1  ZINC000288921983    0.1300
      6 C6         -0.1898    3.8364   52.5969 C.ar    1  ZINC000288921983    0.0500
      7 N7          0.2480    3.0548   51.5211 N.am    1  ZINC000288921983   -0.6700
      8 C8         -0.6400    2.5917   50.6192 C.2     1  ZINC000288921983    0.7100
      9 O9         -1.8214    2.8527   50.7400 O.2     1  ZINC000288921983   -0.5500
     10 N10        -0.2186    1.8393   49.5835 N.am    1  ZINC000288921983   -0.6200
     11 C11         1.2056    1.5154   49.4243 C.3     1  ZINC000288921983    0.1100
     12 C12         1.3547   -0.0040   49.2982 C.3     1  ZINC000288921983   -0.1400
     13 C13         0.4645   -0.5071   48.1595 C.3     1  ZINC000288921983   -0.1200
     14 C14        -0.9989   -0.1899   48.4755 C.3     1  ZINC000288921983   -0.1300
     15 C15        -1.1754    1.3224   48.5956 C.3     1  ZINC000288921983    0.2700
     16 H16        -0.9835    1.7904   47.6301 H       1  ZINC000288921983    0.1100
     17 C17        -2.5823    1.6333   49.0372 C.2     1  ZINC000288921983    0.1700
     18 N18        -3.3260    2.6133   48.6086 N.2     1  ZINC000288921983   -0.2500
     19 N19        -4.4671    2.5744   49.2018 N.2     1  ZINC000288921983   -0.2700
     20 C20        -4.4902    1.5683   50.0290 C.2     1  ZINC000288921983    0.1800
     21 C21        -5.6405    1.1708   50.9178 C.3     1  ZINC000288921983   -0.0300
     22 C22        -5.5069    1.6795   52.3628 C.3     1  ZINC000288921983   -0.1200
     23 C23        -6.2355    2.9518   51.8989 C.3     1  ZINC000288921983   -0.1400
     24 C24        -6.8648    2.0923   50.7898 C.3     1  ZINC000288921983   -0.1200
     25 O25        -3.3020    0.9471   49.9408 O.3     1  ZINC000288921983   -0.2200
     26 C26         0.3239    3.6426   53.8764 C.ar    1  ZINC000288921983    0.1600
     27 N27        -0.1116    4.4058   54.8650 N.ar    1  ZINC000288921983   -0.5000
     28 H28        -3.0347    6.1043   57.3181 H       1  ZINC000288921983    0.0700
     29 H29        -3.5024    5.3884   55.7569 H       1  ZINC000288921983    0.0600
     30 H30        -2.3987    4.5110   56.8434 H       1  ZINC000288921983    0.0600
     31 H31        -1.7922    7.1573   55.4483 H       1  ZINC000288921983    0.0900
     32 H32        -0.6886    6.2798   56.5348 H       1  ZINC000288921983    0.0900
     33 H33        -1.5728    5.0091   51.4382 H       1  ZINC000288921983    0.1700
     34 H34         1.1905    2.8466   51.4248 H       1  ZINC000288921983    0.4100
     35 H35         1.5914    1.9962   48.5253 H       1  ZINC000288921983    0.0800
     36 H36         1.7596    1.8659   50.2951 H       1  ZINC000288921983    0.0800
     37 H37         2.3944   -0.2510   49.0835 H       1  ZINC000288921983    0.0900
     38 H38         1.0531   -0.4779   50.2323 H       1  ZINC000288921983    0.0700
     39 H39         0.7504   -0.0145   47.2302 H       1  ZINC000288921983    0.0700
     40 H40         0.5873   -1.5848   48.0517 H       1  ZINC000288921983    0.0800
     41 H41        -1.6344   -0.5692   47.6752 H       1  ZINC000288921983    0.0900
     42 H42        -1.2784   -0.6620   49.4174 H       1  ZINC000288921983    0.0900
     43 H43        -5.8828    0.1104   50.8474 H       1  ZINC000288921983    0.1000
     44 H44        -6.0720    1.0921   53.0865 H       1  ZINC000288921983    0.1000
     45 H45        -4.4760    1.8543   52.6706 H       1  ZINC000288921983    0.0800
     46 H46        -6.9584    3.3292   52.6221 H       1  ZINC000288921983    0.0700
     47 H47        -5.5661    3.7263   51.5244 H       1  ZINC000288921983    0.1000
     48 H48        -6.9302    2.6005   49.8277 H       1  ZINC000288921983    0.0700
     49 H49        -7.8012    1.6178   51.0835 H       1  ZINC000288921983    0.1000
     50 H50         1.0698    2.8830   54.0582 H       1  ZINC000288921983    0.1800
@<TRIPOS>BOND
     1     1     2    1
     2     1    28    1
     3     1    29    1
     4     1    30    1
     5     2     3    1
     6     2    31    1
     7     2    32    1
     8     3    27   ar
     9     3     4   ar
    10     4     5   ar
    11     5     6   ar
    12     5    33    1
    13     6     7    1
    14     6    26   ar
    15     7     8   am
    16     7    34    1
    17     8     9    2
    18     8    10   am
    19    10    15    1
    20    10    11    1
    21    11    12    1
    22    11    35    1
    23    11    36    1
    24    12    13    1
    25    12    37    1
    26    12    38    1
    27    13    14    1
    28    13    39    1
    29    13    40    1
    30    14    15    1
    31    14    41    1
    32    14    42    1
    33    15    16    1
    34    15    17    1
    35    17    25    1
    36    17    18    2
    37    18    19    1
    38    19    20    2
    39    20    21    1
    40    20    25    1
    41    21    24    1
    42    21    22    1
    43    21    43    1
    44    22    23    1
    45    22    44    1
    46    22    45    1
    47    23    24    1
    48    23    46    1
    49    23    47    1
    50    24    48    1
    51    24    49    1
    52    26    27   ar
    53    26    50    1
@<TRIPOS>SUBSTRUCTURE
     1 ZINC000288921983        1 TEMP              0 ****  ****    0 ROOT


##########                                Name:    ZINC001371344729
##########                DOCK_Rotatable_Bonds:                   9
##########                         Heavy_Atoms:                  24
##########                    Molecular_Weight:             332.399
##########                DOCK_Rotatable_Bonds:                   9
##########                       Formal_Charge:          0.00999983
##########                     HBond_Acceptors:                   6
##########                        HBond_Donors:                   1
##########                         Heavy_Atoms:                  24
##########                          Grid_Score:          -30.764210
##########                     Grid_vdw_energy:          -29.336481
##########                      Grid_es_energy:           -1.427728
##########           Internal_energy_repulsive:           26.572309

@<TRIPOS>MOLECULE
ZINC001371344729
 48 49 1 0 0
SMALL
USER_CHARGES


@<TRIPOS>ATOM
      1 C1         -0.9631   -1.4774   48.9352 C.3     1  ZINC001371344729   -0.1800
      2 C2          0.3456   -1.4282   48.1442 C.3     1  ZINC001371344729    0.1000
      3 N3          0.4639   -0.1298   47.4761 N.am    1  ZINC001371344729   -0.6100
      4 C4         -0.3423    0.1701   46.4384 C.2     1  ZINC001371344729    0.5100
      5 O5         -1.1646   -0.6356   46.0567 O.2     1  ZINC001371344729   -0.5200
      6 C6         -0.2218    1.5064   45.7523 C.3     1  ZINC001371344729   -0.0600
      7 C7          0.9743    1.4944   44.8356 C.2     1  ZINC001371344729   -0.0100
      8 C8          1.4946    2.5638   44.2070 C.2     1  ZINC001371344729   -0.1600
      9 C9          0.9957    3.9836   44.2879 C.3     1  ZINC001371344729   -0.0800
     10 C10         2.5954    2.0993   43.4513 C.2     1  ZINC001371344729   -0.2100
     11 C11         2.6879    0.7754   43.6706 C.2     1  ZINC001371344729   -0.0300
     12 O12         1.7011    0.4139   44.5070 O.3     1  ZINC001371344729   -0.1700
     13 C13         1.4583    0.8428   47.9359 C.3     1  ZINC001371344729    0.1200
     14 H14         1.4030    1.7388   47.3178 H       1  ZINC001371344729    0.1100
     15 C15         2.8571    0.2326   47.8258 C.3     1  ZINC001371344729   -0.1600
     16 C16         1.1757    1.2106   49.3938 C.3     1  ZINC001371344729    0.1100
     17 N17        -0.2231    1.6239   49.5310 N.am    1  ZINC001371344729   -0.7200
     18 C18        -0.5759    2.4998   50.4926 C.2     1  ZINC001371344729    0.5900
     19 O19         0.2673    2.9481   51.2457 O.2     1  ZINC001371344729   -0.5300
     20 C20        -1.9833    2.9142   50.6316 C.2     1  ZINC001371344729   -0.2300
     21 C21        -2.5162    3.7119   51.6015 C.2     1  ZINC001371344729    0.0200
     22 O22        -3.8251    3.8452   51.3661 O.3     1  ZINC001371344729   -0.1700
     23 C23        -4.1878    3.1551   50.2735 C.2     1  ZINC001371344729   -0.0100
     24 C24        -5.5853    3.0741   49.7155 C.3     1  ZINC001371344729   -0.0800
     25 C25        -3.1077    2.5489   49.7576 C.2     1  ZINC001371344729   -0.1600
     26 H26        -1.8040   -1.3408   48.2551 H       1  ZINC001371344729    0.0700
     27 H27        -1.0512   -2.4435   49.4322 H       1  ZINC001371344729    0.0700
     28 H28        -0.9668   -0.6830   49.6815 H       1  ZINC001371344729    0.0600
     29 H29         0.3491   -2.2225   47.3978 H       1  ZINC001371344729    0.0900
     30 H30         1.1864   -1.5648   48.8243 H       1  ZINC001371344729    0.0800
     31 H31        -0.0981    2.2893   46.5006 H       1  ZINC001371344729    0.1100
     32 H32        -1.1233    1.6989   45.1707 H       1  ZINC001371344729    0.1200
     33 H33         1.4933    4.4973   45.1104 H       1  ZINC001371344729    0.0700
     34 H34         1.2138    4.4991   43.3526 H       1  ZINC001371344729    0.0700
     35 H35        -0.0808    3.9813   44.4591 H       1  ZINC001371344729    0.0600
     36 H36         3.2402    2.6939   42.8210 H       1  ZINC001371344729    0.1500
     37 H37         3.4268    0.1143   43.2424 H       1  ZINC001371344729    0.2000
     38 H38         3.0584   -0.0294   46.7870 H       1  ZINC001371344729    0.0700
     39 H39         3.5971    0.9562   48.1679 H       1  ZINC001371344729    0.0700
     40 H40         2.9123   -0.6634   48.4439 H       1  ZINC001371344729    0.0700
     41 H41         1.3629    0.3453   50.0298 H       1  ZINC001371344729    0.0800
     42 H42         1.8280    2.0304   49.6947 H       1  ZINC001371344729    0.0800
     43 H43        -0.8954    1.2672   48.9295 H       1  ZINC001371344729    0.4000
     44 H44        -1.9724    4.1611   52.4194 H       1  ZINC001371344729    0.2100
     45 H45        -6.1072    2.2287   50.1639 H       1  ZINC001371344729    0.0800
     46 H46        -6.1218    3.9950   49.9439 H       1  ZINC001371344729    0.0800
     47 H47        -5.5378    2.9398   48.6348 H       1  ZINC001371344729    0.0900
     48 H48        -3.0716    1.9212   48.8795 H       1  ZINC001371344729    0.1600
@<TRIPOS>BOND
     1     1     2    1
     2     1    26    1
     3     1    27    1
     4     1    28    1
     5     2     3    1
     6     2    29    1
     7     2    30    1
     8     3     4   am
     9     3    13    1
    10     4     5    2
    11     4     6    1
    12     6     7    1
    13     6    31    1
    14     6    32    1
    15     7    12    1
    16     7     8    2
    17     8     9    1
    18     8    10    1
    19     9    33    1
    20     9    34    1
    21     9    35    1
    22    10    11    2
    23    10    36    1
    24    11    12    1
    25    11    37    1
    26    13    14    1
    27    13    15    1
    28    13    16    1
    29    15    38    1
    30    15    39    1
    31    15    40    1
    32    16    17    1
    33    16    41    1
    34    16    42    1
    35    17    18   am
    36    17    43    1
    37    18    19    2
    38    18    20    1
    39    20    25    1
    40    20    21    2
    41    21    22    1
    42    21    44    1
    43    22    23    1
    44    23    24    1
    45    23    25    2
    46    24    45    1
    47    24    46    1
    48    24    47    1
    49    25    48    1
@<TRIPOS>SUBSTRUCTURE
     1 ZINC001371344729        1 TEMP              0 ****  ****    0 ROOT


##########                                Name:    ZINC000065993627
##########                DOCK_Rotatable_Bonds:                   7
##########                         Heavy_Atoms:                  28
##########                    Molecular_Weight:             382.462
##########                DOCK_Rotatable_Bonds:                   7
##########                       Formal_Charge:          -0.0200002
##########                     HBond_Acceptors:                   7
##########                        HBond_Donors:                   2
##########                         Heavy_Atoms:                  28
##########                          Grid_Score:          -30.759342
##########                     Grid_vdw_energy:          -31.025391
##########                      Grid_es_energy:            0.266048
##########           Internal_energy_repulsive:           11.204433

@<TRIPOS>MOLECULE
ZINC000065993627
 54 56 1 0 0
SMALL
USER_CHARGES


@<TRIPOS>ATOM
      1 C1        -12.7982   -2.3159   57.8620 C.3     1  ZINC000065993627   -0.1200
      2 C2        -11.6883   -1.4054   58.3201 C.ar    1  ZINC000065993627   -0.0700
      3 C3        -11.6096   -1.0257   59.6450 C.ar    1  ZINC000065993627   -0.1800
      4 C4        -10.5865   -0.1864   60.0673 C.ar    1  ZINC000065993627    0.2000
      5 N5        -10.5064    0.1983   61.4102 N.pl3   1  ZINC000065993627   -0.6400
      6 C6         -9.4051   -0.2858   62.2463 C.3     1  ZINC000065993627    0.1000
      7 C7        -11.5236    1.0853   61.9800 C.3     1  ZINC000065993627    0.0900
      8 C8         -9.6432    0.2705   59.1566 C.ar    1  ZINC000065993627   -0.1800
      9 C9         -9.7223   -0.1096   57.8314 C.ar    1  ZINC000065993627   -0.0800
     10 C10       -10.7415   -0.9529   57.4107 C.ar    1  ZINC000065993627    0.1100
     11 N11       -10.8214   -1.3390   56.0653 N.am    1  ZINC000065993627   -0.6800
     12 C12       -10.9067   -0.4028   55.0995 C.2     1  ZINC000065993627    0.7000
     13 O13       -10.9144    0.7767   55.3950 O.2     1  ZINC000065993627   -0.5700
     14 N14       -10.9835   -0.7739   53.8062 N.am    1  ZINC000065993627   -0.7400
     15 C15       -11.0743    0.2437   52.7562 C.3     1  ZINC000065993627    0.2100
     16 H16       -11.6461    1.0956   53.1244 H       1  ZINC000065993627    0.1000
     17 C17       -11.7735   -0.3486   51.5310 C.3     1  ZINC000065993627   -0.1600
     18 C18        -9.6886    0.6962   52.3739 C.ar    1  ZINC000065993627   -0.1200
     19 C19        -9.4355    2.0389   52.1608 C.ar    1  ZINC000065993627   -0.0800
     20 C20        -8.1667    2.4568   51.8102 C.ar    1  ZINC000065993627   -0.1500
     21 C21        -7.1446    1.5270   51.6718 C.ar    1  ZINC000065993627    0.1800
     22 N22        -5.8576    1.9472   51.3170 N.am    1  ZINC000065993627   -0.5700
     23 C23        -5.0421    1.3820   50.2313 C.3     1  ZINC000065993627    0.0600
     24 C24        -3.7401    2.2044   50.2839 C.3     1  ZINC000065993627    0.0400
     25 O25        -3.9561    3.1370   51.3823 O.3     1  ZINC000065993627   -0.3200
     26 C26        -5.1696    2.9340   51.9076 C.2     1  ZINC000065993627    0.6400
     27 O27        -5.6046    3.5793   52.8408 O.2     1  ZINC000065993627   -0.5000
     28 C28        -7.4020    0.1794   51.8864 C.ar    1  ZINC000065993627   -0.1500
     29 C29        -8.6717   -0.2314   52.2423 C.ar    1  ZINC000065993627   -0.0800
     30 H30       -12.4787   -3.3539   57.9555 H       1  ZINC000065993627    0.0700
     31 H31       -13.6816   -2.1507   58.4786 H       1  ZINC000065993627    0.0700
     32 H32       -13.0371   -2.1019   56.8202 H       1  ZINC000065993627    0.0600
     33 H33       -12.3437   -1.3808   60.3531 H       1  ZINC000065993627    0.1200
     34 H34        -8.5694    0.4113   62.1860 H       1  ZINC000065993627    0.0500
     35 H35        -9.7406   -0.3621   63.2806 H       1  ZINC000065993627    0.0700
     36 H36        -9.0860   -1.2670   61.8946 H       1  ZINC000065993627    0.0700
     37 H37       -12.3032    1.2666   61.2401 H       1  ZINC000065993627    0.0800
     38 H38       -11.9611    0.6172   62.8617 H       1  ZINC000065993627    0.0500
     39 H39       -11.0631    2.0322   62.2621 H       1  ZINC000065993627    0.0500
     40 H40        -8.8478    0.9234   59.4846 H       1  ZINC000065993627    0.1300
     41 H41        -8.9885    0.2458   57.1229 H       1  ZINC000065993627    0.1500
     42 H42       -10.8152   -2.2798   55.8295 H       1  ZINC000065993627    0.4000
     43 H43       -10.9786   -1.7148   53.5704 H       1  ZINC000065993627    0.4000
     44 H44       -12.7758   -0.6759   51.8075 H       1  ZINC000065993627    0.0700
     45 H45       -11.8412    0.4085   50.7498 H       1  ZINC000065993627    0.0700
     46 H46       -11.2018   -1.2005   51.1628 H       1  ZINC000065993627    0.0600
     47 H47       -10.2310    2.7615   52.2682 H       1  ZINC000065993627    0.1300
     48 H48        -7.9697    3.5054   51.6435 H       1  ZINC000065993627    0.1600
     49 H49        -4.8366    0.3275   50.4157 H       1  ZINC000065993627    0.1000
     50 H50        -5.5396    1.5137   49.2704 H       1  ZINC000065993627    0.1000
     51 H51        -2.8880    1.5579   50.4935 H       1  ZINC000065993627    0.1100
     52 H52        -3.5907    2.7437   49.3485 H       1  ZINC000065993627    0.1100
     53 H53        -6.6092   -0.5461   51.7792 H       1  ZINC000065993627    0.1300
     54 H54        -8.8724   -1.2793   52.4097 H       1  ZINC000065993627    0.1300
@<TRIPOS>BOND
     1     1     2    1
     2     1    30    1
     3     1    31    1
     4     1    32    1
     5     2    10   ar
     6     2     3   ar
     7     3     4   ar
     8     3    33    1
     9     4     5    1
    10     4     8   ar
    11     5     6    1
    12     5     7    1
    13     6    34    1
    14     6    35    1
    15     6    36    1
    16     7    37    1
    17     7    38    1
    18     7    39    1
    19     8     9   ar
    20     8    40    1
    21     9    10   ar
    22     9    41    1
    23    10    11    1
    24    11    12   am
    25    11    42    1
    26    12    13    2
    27    12    14   am
    28    14    15    1
    29    14    43    1
    30    15    16    1
    31    15    17    1
    32    15    18    1
    33    17    44    1
    34    17    45    1
    35    17    46    1
    36    18    29   ar
    37    18    19   ar
    38    19    20   ar
    39    19    47    1
    40    20    21   ar
    41    20    48    1
    42    21    22    1
    43    21    28   ar
    44    22    26   am
    45    22    23    1
    46    23    24    1
    47    23    49    1
    48    23    50    1
    49    24    25    1
    50    24    51    1
    51    24    52    1
    52    25    26    1
    53    26    27    2
    54    28    29   ar
    55    28    53    1
    56    29    54    1
@<TRIPOS>SUBSTRUCTURE
     1 ZINC000065993627        1 TEMP              0 ****  ****    0 ROOT


##########                                Name:    ZINC000543020509
##########                DOCK_Rotatable_Bonds:                   5
##########                         Heavy_Atoms:                  26
##########                    Molecular_Weight:              366.81
##########                DOCK_Rotatable_Bonds:                   5
##########                       Formal_Charge:               -0.02
##########                     HBond_Acceptors:                   8
##########                        HBond_Donors:                   1
##########                         Heavy_Atoms:                  26
##########                          Grid_Score:          -30.741262
##########                     Grid_vdw_energy:          -29.434006
##########                      Grid_es_energy:           -1.307256
##########           Internal_energy_repulsive:           19.765804

@<TRIPOS>MOLECULE
ZINC000543020509
 41 43 1 0 0
SMALL
USER_CHARGES


@<TRIPOS>ATOM
      1 C1         -9.1797    5.1519   50.5365 C.3     1  ZINC000543020509    0.0800
      2 N2         -9.3618    3.9518   51.3567 N.pl3   1  ZINC000543020509   -0.6200
      3 C3        -10.5560    3.8107   52.1935 C.3     1  ZINC000543020509    0.0900
      4 C4         -8.4002    2.9455   51.3410 C.ar    1  ZINC000543020509    0.2500
      5 C5         -8.6012    1.7545   52.0366 C.ar    1  ZINC000543020509   -0.2200
      6 C6         -7.6246    0.7764   51.9984 C.ar    1  ZINC000543020509    0.1400
      7 N7         -6.5129    0.9548   51.3166 N.ar    1  ZINC000543020509   -0.5000
      8 C8         -6.2784    2.0733   50.6389 C.ar    1  ZINC000543020509    0.1100
      9 C9         -5.0108    2.2237   49.8872 C.2     1  ZINC000543020509    0.5900
     10 O10        -4.7890    3.2459   49.2683 O.2     1  ZINC000543020509   -0.5000
     11 N11        -4.1035    1.2271   49.8896 N.am    1  ZINC000543020509   -0.6200
     12 C12        -2.9052    1.3699   49.1808 C.2     1  ZINC000543020509    0.3200
     13 N13        -2.5811    2.3843   48.4135 N.2     1  ZINC000543020509   -0.3100
     14 N14        -1.3040    2.1463   47.8893 N.pl3   1  ZINC000543020509   -0.3300
     15 C15        -0.5997    2.9891   47.0260 C.ar    1  ZINC000543020509    0.2200
     16 C16        -0.2055    4.2493   47.4509 C.ar    1  ZINC000543020509   -0.1300
     17 C17         0.4910    5.0817   46.5964 C.ar    1  ZINC000543020509   -0.0500
     18 C18         0.8007    4.6666   45.3112 C.ar    1  ZINC000543020509   -0.0600
     19 Cl19        1.6765    5.7241   44.2488 Cl      1  ZINC000543020509   -0.0500
     20 C20         0.4165    3.4158   44.8721 C.ar    1  ZINC000543020509   -0.0400
     21 C21        -0.2832    2.5625   45.7276 C.ar    1  ZINC000543020509   -0.0200
     22 C22        -0.6849    1.2634   45.2785 C.1     1  ZINC000543020509    0.2500
     23 N23        -1.0035    0.2328   44.9222 N.1     1  ZINC000543020509   -0.3800
     24 C24        -0.8711    0.9511   48.3693 C.2     1  ZINC000543020509    0.0700
     25 C25        -1.8388    0.4548   49.1725 C.2     1  ZINC000543020509   -0.2400
     26 C26        -7.2140    3.1015   50.6240 C.ar    1  ZINC000543020509   -0.1800
     27 H27        -8.6432    5.9069   51.1113 H       1  ZINC000543020509    0.0600
     28 H28        -8.6063    4.8989   49.6447 H       1  ZINC000543020509    0.0700
     29 H29       -10.1540    5.5429   50.2433 H       1  ZINC000543020509    0.0700
     30 H30       -11.1884    4.6907   52.0755 H       1  ZINC000543020509    0.0800
     31 H31       -11.1097    2.9222   51.8898 H       1  ZINC000543020509    0.0600
     32 H32       -10.2587    3.7142   53.2377 H       1  ZINC000543020509    0.0600
     33 H33        -9.5094    1.5975   52.5995 H       1  ZINC000543020509    0.1400
     34 H34        -7.7762   -0.1478   52.5363 H       1  ZINC000543020509    0.1700
     35 H35        -4.2811    0.4109   50.3827 H       1  ZINC000543020509    0.4300
     36 H36        -0.4434    4.5801   48.4510 H       1  ZINC000543020509    0.1500
     37 H37         0.7954    6.0621   46.9320 H       1  ZINC000543020509    0.1500
     38 H38         0.6600    3.0962   43.8697 H       1  ZINC000543020509    0.1500
     39 H39         0.0777    0.4834   48.1515 H       1  ZINC000543020509    0.1900
     40 H40        -1.8015   -0.4824   49.7078 H       1  ZINC000543020509    0.1800
     41 H41        -7.0220    4.0098   50.0722 H       1  ZINC000543020509    0.1500
@<TRIPOS>BOND
     1     1     2    1
     2     1    27    1
     3     1    28    1
     4     1    29    1
     5     2     3    1
     6     2     4    1
     7     3    30    1
     8     3    31    1
     9     3    32    1
    10     4    26   ar
    11     4     5   ar
    12     5     6   ar
    13     5    33    1
    14     6     7   ar
    15     6    34    1
    16     7     8   ar
    17     8     9    1
    18     8    26   ar
    19     9    10    2
    20     9    11   am
    21    11    12    1
    22    11    35    1
    23    12    25    1
    24    12    13    2
    25    13    14    1
    26    14    15    1
    27    14    24    1
    28    15    21   ar
    29    15    16   ar
    30    16    17   ar
    31    16    36    1
    32    17    18   ar
    33    17    37    1
    34    18    19    1
    35    18    20   ar
    36    20    21   ar
    37    20    38    1
    38    21    22    1
    39    22    23    3
    40    24    25    2
    41    24    39    1
    42    25    40    1
    43    26    41    1
@<TRIPOS>SUBSTRUCTURE
     1 ZINC000543020509        1 TEMP              0 ****  ****    0 ROOT


##########                                Name:    ZINC000821214121
##########                DOCK_Rotatable_Bonds:                  10
##########                         Heavy_Atoms:                  23
##########                    Molecular_Weight:             338.434
##########                DOCK_Rotatable_Bonds:                  10
##########                       Formal_Charge:          0.00999954
##########                     HBond_Acceptors:                   9
##########                        HBond_Donors:                   3
##########                         Heavy_Atoms:                  23
##########                          Grid_Score:          -30.734339
##########                     Grid_vdw_energy:          -30.124283
##########                      Grid_es_energy:           -0.610055
##########           Internal_energy_repulsive:            9.920391

@<TRIPOS>MOLECULE
ZINC000821214121
 45 46 1 0 0
SMALL
USER_CHARGES


@<TRIPOS>ATOM
      1 C1         -6.9961    5.5808   50.1261 C.3     1  ZINC000821214121   -0.1500
      2 C2         -6.4670    4.4140   49.2898 C.3     1  ZINC000821214121    0.0500
      3 N3         -5.8638    3.4099   50.1765 N.3     1  ZINC000821214121   -0.5200
      4 C4         -6.8981    2.6181   50.8556 C.3     1  ZINC000821214121    0.0600
      5 C5         -6.8051    2.8458   52.3658 C.3     1  ZINC000821214121   -0.1200
      6 C6         -8.1011    2.3802   53.0325 C.3     1  ZINC000821214121    0.0800
      7 O7         -8.3080    0.9937   52.7554 O.3     1  ZINC000821214121   -0.5700
      8 C8         -4.9380    2.5423   49.4364 C.3     1  ZINC000821214121    0.0400
      9 C9         -3.6135    2.4932   50.1536 C.2     1  ZINC000821214121    0.5000
     10 O10        -3.5815    2.3861   51.3616 O.2     1  ZINC000821214121   -0.4800
     11 N11        -2.4646    2.5681   49.4532 N.am    1  ZINC000821214121   -0.6300
     12 C12        -1.2397    2.5210   50.1164 C.2     1  ZINC000821214121    0.0800
     13 C13        -0.2699    1.5845   49.9147 C.2     1  ZINC000821214121   -0.1000
     14 C14        -0.4084    0.4764   48.9397 C.2     1  ZINC000821214121    0.2900
     15 N15         0.0614    0.4570   47.7055 N.2     1  ZINC000821214121   -0.3300
     16 N16        -0.3116   -0.7873   47.1713 N.pl3   1  ZINC000821214121   -0.2900
     17 N17        -0.9614   -1.4162   48.0901 N.2     1  ZINC000821214121    0.0200
     18 N18        -1.0273   -0.6907   49.1494 N.2     1  ZINC000821214121   -0.2900
     19 C19         0.8643    1.7612   50.7071 C.2     1  ZINC000821214121   -0.0500
     20 C20         2.0516    0.8357   50.6380 C.3     1  ZINC000821214121   -0.1000
     21 C21         0.8210    2.8060   51.5269 C.2     1  ZINC000821214121   -0.2400
     22 C22         1.9218    3.2018   52.4770 C.3     1  ZINC000821214121   -0.0800
     23 S23        -0.7010    3.6647   51.3387 S.3     1  ZINC000821214121    0.2600
     24 H24        -7.6752    5.2018   50.8899 H       1  ZINC000821214121    0.0700
     25 H25        -6.1612    6.0932   50.6042 H       1  ZINC000821214121    0.0500
     26 H26        -7.5289    6.2786   49.4801 H       1  ZINC000821214121    0.0600
     27 H27        -7.2894    3.9619   48.7354 H       1  ZINC000821214121    0.0900
     28 H28        -5.7151    4.7797   48.5905 H       1  ZINC000821214121    0.0400
     29 H29        -7.8821    2.9258   50.5017 H       1  ZINC000821214121    0.0400
     30 H30        -6.7477    1.5608   50.6378 H       1  ZINC000821214121    0.0800
     31 H31        -5.9656    2.2787   52.7678 H       1  ZINC000821214121    0.0800
     32 H32        -6.6552    3.9070   52.5647 H       1  ZINC000821214121    0.0700
     33 H33        -8.0290    2.5286   54.1099 H       1  ZINC000821214121    0.0400
     34 H34        -8.9387    2.9578   52.6414 H       1  ZINC000821214121    0.0500
     35 H35        -8.3302    0.7800   51.8125 H       1  ZINC000821214121    0.3800
     36 H36        -5.3543    1.5369   49.3730 H       1  ZINC000821214121    0.0700
     37 H37        -4.7926    2.9392   48.4317 H       1  ZINC000821214121    0.1200
     38 H38        -2.4901    2.6548   48.4873 H       1  ZINC000821214121    0.4200
     39 H39        -0.1170   -1.1123   46.2783 H       1  ZINC000821214121    0.4700
     40 H40         2.7557    1.2031   49.8915 H       1  ZINC000821214121    0.0700
     41 H41         2.5405    0.7987   51.6115 H       1  ZINC000821214121    0.0700
     42 H42         1.7172   -0.1641   50.3612 H       1  ZINC000821214121    0.0900
     43 H43         2.6051    3.8874   51.9761 H       1  ZINC000821214121    0.0700
     44 H44         1.4898    3.6922   53.3494 H       1  ZINC000821214121    0.0700
     45 H45         2.4664    2.3121   52.7929 H       1  ZINC000821214121    0.0800
@<TRIPOS>BOND
     1     1     2    1
     2     1    24    1
     3     1    25    1
     4     1    26    1
     5     2     3    1
     6     2    27    1
     7     2    28    1
     8     3     4    1
     9     3     8    1
    10     4     5    1
    11     4    29    1
    12     4    30    1
    13     5     6    1
    14     5    31    1
    15     5    32    1
    16     6     7    1
    17     6    33    1
    18     6    34    1
    19     7    35    1
    20     8     9    1
    21     8    36    1
    22     8    37    1
    23     9    10    2
    24     9    11   am
    25    11    12    1
    26    11    38    1
    27    12    23    1
    28    12    13    2
    29    13    14    1
    30    13    19    1
    31    14    18    1
    32    14    15    2
    33    15    16    1
    34    16    17    1
    35    16    39    1
    36    17    18    2
    37    19    20    1
    38    19    21    2
    39    20    40    1
    40    20    41    1
    41    20    42    1
    42    21    22    1
    43    21    23    1
    44    22    43    1
    45    22    44    1
    46    22    45    1
@<TRIPOS>SUBSTRUCTURE
     1 ZINC000821214121        1 TEMP              0 ****  ****    0 ROOT


##########                                Name:    ZINC000675319328
##########                DOCK_Rotatable_Bonds:                   7
##########                         Heavy_Atoms:                  26
##########                    Molecular_Weight:             363.475
##########                DOCK_Rotatable_Bonds:                   7
##########                       Formal_Charge:          -0.0200007
##########                     HBond_Acceptors:                   6
##########                        HBond_Donors:                   1
##########                         Heavy_Atoms:                  26
##########                          Grid_Score:          -30.716526
##########                     Grid_vdw_energy:          -29.873316
##########                      Grid_es_energy:           -0.843209
##########           Internal_energy_repulsive:           32.792274

@<TRIPOS>MOLECULE
ZINC000675319328
 56 58 1 0 0
SMALL
USER_CHARGES


@<TRIPOS>ATOM
      1 C1         -6.0940    0.9911   51.1931 C.3     1  ZINC000675319328   -0.1600
      2 C2         -4.9613    2.0144   51.0915 C.3     1  ZINC000675319328    0.1600
      3 H3         -4.6973    2.3646   52.0894 H       1  ZINC000675319328    0.0900
      4 C4         -5.4197    3.1999   50.2398 C.3     1  ZINC000675319328   -0.1200
      5 C5         -6.6405    3.8535   50.8904 C.3     1  ZINC000675319328   -0.1200
      6 H6         -7.4399    3.1256   51.0298 H       1  ZINC000675319328    0.0800
      7 C7         -6.2574    4.5191   52.2403 C.3     1  ZINC000675319328   -0.1500
      8 C8         -7.3188    5.6448   52.3247 C.3     1  ZINC000675319328    0.0500
      9 O9         -7.4935    6.0978   50.9729 O.3     1  ZINC000675319328   -0.3900
     10 C10        -7.1312    5.0551   50.0546 C.3     1  ZINC000675319328    0.0500
     11 N11        -3.7922    1.3887   50.4685 N.am    1  ZINC000675319328   -0.7400
     12 C12        -2.7019    2.1290   50.1861 C.2     1  ZINC000675319328    0.7000
     13 O13        -2.6886    3.3161   50.4485 O.2     1  ZINC000675319328   -0.5900
     14 N14        -1.6265    1.5533   49.6129 N.am    1  ZINC000675319328   -0.6200
     15 C15        -1.6727    0.1102   49.3064 C.3     1  ZINC000675319328    0.1300
     16 C16        -1.0538   -0.1890   47.9306 C.3     1  ZINC000675319328   -0.1300
     17 C17        -1.4625    0.8840   46.9456 C.3     1  ZINC000675319328    0.0700
     18 N18        -0.4459    1.9346   46.9336 N.3     1  ZINC000675319328   -0.5500
     19 C19        -0.2827    2.4940   45.5852 C.3     1  ZINC000675319328    0.1000
     20 C20         0.9379    1.8938   44.9365 C.ar    1  ZINC000675319328   -0.0900
     21 C21         2.1462    2.5636   44.9859 C.ar    1  ZINC000675319328   -0.0900
     22 C22         3.2663    2.0141   44.3914 C.ar    1  ZINC000675319328   -0.1500
     23 C23         3.1780    0.7921   43.7466 C.ar    1  ZINC000675319328    0.1000
     24 F24         4.2725    0.2538   43.1655 F       1  ZINC000675319328   -0.1400
     25 C25         1.9674    0.1219   43.6982 C.ar    1  ZINC000675319328   -0.1500
     26 C26         0.8497    0.6711   44.2976 C.ar    1  ZINC000675319328   -0.0700
     27 C27        -0.5939    2.9622   47.8943 C.3     1  ZINC000675319328    0.0500
     28 C28        -0.4714    2.3758   49.3158 C.3     1  ZINC000675319328    0.1100
     29 H29        -5.7674    0.1466   51.8000 H       1  ZINC000675319328    0.0600
     30 H30        -6.9638    1.4567   51.6566 H       1  ZINC000675319328    0.0700
     31 H31        -6.3580    0.6409   50.1952 H       1  ZINC000675319328    0.0500
     32 H32        -4.6126    3.9289   50.1674 H       1  ZINC000675319328    0.0700
     33 H33        -5.6835    2.8497   49.2419 H       1  ZINC000675319328    0.0900
     34 H34        -6.3621    3.8176   53.0679 H       1  ZINC000675319328    0.0800
     35 H35        -5.2493    4.9318   52.2027 H       1  ZINC000675319328    0.0800
     36 H36        -8.2570    5.2516   52.7162 H       1  ZINC000675319328    0.0600
     37 H37        -6.9575    6.4591   52.9529 H       1  ZINC000675319328    0.0900
     38 H38        -6.3296    5.3998   49.4013 H       1  ZINC000675319328    0.0700
     39 H39        -7.9982    4.7692   49.4589 H       1  ZINC000675319328    0.0700
     40 H40        -3.8029    0.4417   50.2592 H       1  ZINC000675319328    0.3900
     41 H41        -1.1208   -0.4351   50.0721 H       1  ZINC000675319328    0.0600
     42 H42        -2.7107   -0.2227   49.3109 H       1  ZINC000675319328    0.0900
     43 H43         0.0325   -0.2070   48.0175 H       1  ZINC000675319328    0.0800
     44 H44        -1.4053   -1.1584   47.5776 H       1  ZINC000675319328    0.0800
     45 H45        -1.5499    0.4501   45.9495 H       1  ZINC000675319328    0.0700
     46 H46        -2.4210    1.3078   47.2451 H       1  ZINC000675319328    0.0400
     47 H47        -1.1636    2.2620   44.9865 H       1  ZINC000675319328    0.0900
     48 H48        -0.1638    3.5754   45.6524 H       1  ZINC000675319328    0.0400
     49 H49         2.2149    3.5168   45.4890 H       1  ZINC000675319328    0.1300
     50 H50         4.2100    2.5379   44.4295 H       1  ZINC000675319328    0.1400
     51 H51         1.8972   -0.8312   43.1951 H       1  ZINC000675319328    0.1400
     52 H52        -0.0946    0.1484   44.2602 H       1  ZINC000675319328    0.1300
     53 H53         0.1817    3.7130   47.7433 H       1  ZINC000675319328    0.0900
     54 H54        -1.5729    3.4272   47.7787 H       1  ZINC000675319328    0.0300
     55 H55        -0.4119    3.1887   50.0395 H       1  ZINC000675319328    0.0700
     56 H56         0.4302    1.7667   49.3805 H       1  ZINC000675319328    0.0900
@<TRIPOS>BOND
     1     1     2    1
     2     1    29    1
     3     1    30    1
     4     1    31    1
     5     2     3    1
     6     2     4    1
     7     2    11    1
     8     4     5    1
     9     4    32    1
    10     4    33    1
    11     5     6    1
    12     5    10    1
    13     5     7    1
    14     7     8    1
    15     7    34    1
    16     7    35    1
    17     8     9    1
    18     8    36    1
    19     8    37    1
    20     9    10    1
    21    10    38    1
    22    10    39    1
    23    11    12   am
    24    11    40    1
    25    12    13    2
    26    12    14   am
    27    14    28    1
    28    14    15    1
    29    15    16    1
    30    15    41    1
    31    15    42    1
    32    16    17    1
    33    16    43    1
    34    16    44    1
    35    17    18    1
    36    17    45    1
    37    17    46    1
    38    18    19    1
    39    18    27    1
    40    19    20    1
    41    19    47    1
    42    19    48    1
    43    20    26   ar
    44    20    21   ar
    45    21    22   ar
    46    21    49    1
    47    22    23   ar
    48    22    50    1
    49    23    24    1
    50    23    25   ar
    51    25    26   ar
    52    25    51    1
    53    26    52    1
    54    27    28    1
    55    27    53    1
    56    27    54    1
    57    28    55    1
    58    28    56    1
@<TRIPOS>SUBSTRUCTURE
     1 ZINC000675319328        1 TEMP              0 ****  ****    0 ROOT


##########                                Name:    ZINC001707804910
##########                DOCK_Rotatable_Bonds:                   4
##########                         Heavy_Atoms:                  26
##########                    Molecular_Weight:             358.403
##########                DOCK_Rotatable_Bonds:                   4
##########                       Formal_Charge:          -0.0399996
##########                     HBond_Acceptors:                  10
##########                        HBond_Donors:                   0
##########                         Heavy_Atoms:                  26
##########                          Grid_Score:          -30.708179
##########                     Grid_vdw_energy:          -31.699568
##########                      Grid_es_energy:            0.991388
##########           Internal_energy_repulsive:            8.799151

@<TRIPOS>MOLECULE
ZINC001707804910
 48 51 1 0 0
SMALL
USER_CHARGES


@<TRIPOS>ATOM
      1 C1          1.5834    6.1318   47.6329 C.3     1  ZINC001707804910   -0.0700
      2 C2          1.1636    4.9320   46.8234 C.2     1  ZINC001707804910    0.0700
      3 N3          1.8576    4.3711   45.8666 N.2     1  ZINC001707804910   -0.2800
      4 N4          1.1213    3.2883   45.3688 N.pl3   1  ZINC001707804910   -0.3700
      5 C5          1.5347    2.3886   44.2890 C.3     1  ZINC001707804910    0.0900
      6 C6         -0.0359    3.2202   46.0597 C.2     1  ZINC001707804910    0.0500
      7 C7         -1.1326    2.2064   45.8583 C.3     1  ZINC001707804910    0.1800
      8 N8         -0.8561    1.0199   46.6718 N.pl3   1  ZINC001707804910   -0.4600
      9 C9         -0.4091   -0.1958   46.2334 C.2     1  ZINC001707804910    0.1900
     10 C10        -0.1040   -0.5737   44.8068 C.3     1  ZINC001707804910   -0.0700
     11 N11        -0.2951   -0.9665   47.2776 N.2     1  ZINC001707804910   -0.2800
     12 N12        -0.6371   -0.3255   48.3380 N.2     1  ZINC001707804910   -0.3000
     13 C13        -0.9856    0.9002   48.0249 C.2     1  ZINC001707804910    0.3500
     14 N14        -1.4127    1.8846   48.9018 N.3     1  ZINC001707804910   -0.4600
     15 C15        -0.3659    2.2074   49.8821 C.3     1  ZINC001707804910    0.0200
     16 C16        -0.8561    3.3377   50.7908 C.3     1  ZINC001707804910    0.0700
     17 O17        -2.0803    2.9429   51.4161 O.3     1  ZINC001707804910   -0.3600
     18 C18        -3.1222    2.6219   50.4906 C.3     1  ZINC001707804910    0.2000
     19 H19        -3.3562    3.4991   49.8874 H       1  ZINC001707804910    0.1000
     20 C20        -4.3515    2.1889   51.2471 C.2     1  ZINC001707804910    0.1600
     21 N21        -4.6929    2.5690   52.4455 N.2     1  ZINC001707804910   -0.2500
     22 N22        -5.8000    2.0016   52.7741 N.2     1  ZINC001707804910   -0.2900
     23 C23        -6.2024    1.2402   51.7967 C.2     1  ZINC001707804910    0.1700
     24 C24        -7.4538    0.4008   51.7772 C.3     1  ZINC001707804910   -0.0600
     25 O25        -5.2995    1.3445   50.8072 O.3     1  ZINC001707804910   -0.2200
     26 C26        -2.6548    1.4843   49.5788 C.3     1  ZINC001707804910    0.0400
     27 C27        -0.0327    4.2221   46.9693 C.2     1  ZINC001707804910   -0.2300
     28 H28         2.1358    5.8014   48.5125 H       1  ZINC001707804910    0.0800
     29 H29         2.2192    6.7757   47.0252 H       1  ZINC001707804910    0.0700
     30 H30         0.6989    6.6862   47.9465 H       1  ZINC001707804910    0.0800
     31 H31         2.1736    1.6039   44.6943 H       1  ZINC001707804910    0.0800
     32 H32         0.6526    1.9393   43.8327 H       1  ZINC001707804910    0.0900
     33 H33         2.0854    2.9531   43.5366 H       1  ZINC001707804910    0.0900
     34 H34        -2.0868    2.6390   46.1591 H       1  ZINC001707804910    0.1100
     35 H35        -1.1773    1.9236   44.8066 H       1  ZINC001707804910    0.1200
     36 H36         0.9082   -0.2565   44.5555 H       1  ZINC001707804910    0.0900
     37 H37        -0.1850   -1.6545   44.6920 H       1  ZINC001707804910    0.1000
     38 H38        -0.8143   -0.0833   44.1411 H       1  ZINC001707804910    0.0700
     39 H39        -0.1465    1.3255   50.4841 H       1  ZINC001707804910    0.0700
     40 H40         0.5363    2.5257   49.3596 H       1  ZINC001707804910    0.0900
     41 H41        -0.1062    3.5415   51.5551 H       1  ZINC001707804910    0.1200
     42 H42        -1.0242    4.2357   50.1963 H       1  ZINC001707804910    0.0700
     43 H43        -8.2788    0.9878   51.3735 H       1  ZINC001707804910    0.1000
     44 H44        -7.2927   -0.4774   51.1520 H       1  ZINC001707804910    0.1000
     45 H45        -7.6953    0.0849   52.7921 H       1  ZINC001707804910    0.1100
     46 H46        -3.4236    1.2748   48.8350 H       1  ZINC001707804910    0.1000
     47 H47        -2.4722    0.5909   50.1759 H       1  ZINC001707804910    0.0800
     48 H48        -0.8180    4.4390   47.6783 H       1  ZINC001707804910    0.1500
@<TRIPOS>BOND
     1     1     2    1
     2     1    28    1
     3     1    29    1
     4     1    30    1
     5     2    27    1
     6     2     3    2
     7     3     4    1
     8     4     5    1
     9     4     6    1
    10     5    31    1
    11     5    32    1
    12     5    33    1
    13     6     7    1
    14     6    27    2
    15     7     8    1
    16     7    34    1
    17     7    35    1
    18     8    13    1
    19     8     9    1
    20     9    10    1
    21     9    11    2
    22    10    36    1
    23    10    37    1
    24    10    38    1
    25    11    12    1
    26    12    13    2
    27    13    14    1
    28    14    26    1
    29    14    15    1
    30    15    16    1
    31    15    39    1
    32    15    40    1
    33    16    17    1
    34    16    41    1
    35    16    42    1
    36    17    18    1
    37    18    19    1
    38    18    20    1
    39    18    26    1
    40    20    25    1
    41    20    21    2
    42    21    22    1
    43    22    23    2
    44    23    24    1
    45    23    25    1
    46    24    43    1
    47    24    44    1
    48    24    45    1
    49    26    46    1
    50    26    47    1
    51    27    48    1
@<TRIPOS>SUBSTRUCTURE
     1 ZINC001707804910        1 TEMP              0 ****  ****    0 ROOT


##########                                Name:    ZINC000279331220
##########                DOCK_Rotatable_Bonds:                   9
##########                         Heavy_Atoms:                  24
##########                    Molecular_Weight:             328.411
##########                DOCK_Rotatable_Bonds:                   9
##########                       Formal_Charge:          -0.0100001
##########                     HBond_Acceptors:                   5
##########                        HBond_Donors:                   0
##########                         Heavy_Atoms:                  24
##########                          Grid_Score:          -30.698868
##########                     Grid_vdw_energy:          -30.619570
##########                      Grid_es_energy:           -0.079298
##########           Internal_energy_repulsive:           14.784487

@<TRIPOS>MOLECULE
ZINC000279331220
 48 49 1 0 0
SMALL
USER_CHARGES


@<TRIPOS>ATOM
      1 C1         -8.3786    5.5860   52.3581 C.3     1  ZINC000279331220   -0.1500
      2 C2         -7.4634    4.4067   52.0227 C.3     1  ZINC000279331220    0.0500
      3 O3         -7.5512    3.4262   53.0585 O.3     1  ZINC000279331220   -0.3000
      4 C4         -8.0957    2.2249   52.7270 C.ar    1  ZINC000279331220    0.1000
      5 C5         -9.4219    1.9579   53.0252 C.ar    1  ZINC000279331220   -0.1700
      6 C6         -9.9742    0.7361   52.6870 C.ar    1  ZINC000279331220   -0.1200
      7 C7         -9.2057   -0.2210   52.0517 C.ar    1  ZINC000279331220   -0.1200
      8 C8         -7.8810    0.0389   51.7515 C.ar    1  ZINC000279331220   -0.1700
      9 C9         -7.3234    1.2631   52.0819 C.ar    1  ZINC000279331220    0.1000
     10 O10        -6.0209    1.5203   51.7874 O.3     1  ZINC000279331220   -0.3000
     11 C11        -5.6242    1.3787   50.4220 C.3     1  ZINC000279331220    0.0600
     12 C12        -4.5536    2.4204   50.0911 C.3     1  ZINC000279331220   -0.1100
     13 C13        -3.3058    1.7165   49.5542 C.3     1  ZINC000279331220   -0.1300
     14 C14        -2.0862    2.5410   49.8763 C.2     1  ZINC000279331220    0.5200
     15 O15        -2.1769    3.4914   50.6240 O.2     1  ZINC000279331220   -0.5200
     16 N16        -0.8945    2.2221   49.3334 N.am    1  ZINC000279331220   -0.5700
     17 C17         0.2914    3.0226   49.6480 C.3     1  ZINC000279331220    0.0800
     18 C18        -0.7904    1.1306   48.4724 C.ar    1  ZINC000279331220    0.3400
     19 N19        -0.4288   -0.0493   48.9504 N.ar    1  ZINC000279331220   -0.4800
     20 C20        -0.3181   -1.1076   48.1704 C.ar    1  ZINC000279331220    0.1100
     21 C21        -0.5780   -1.0200   46.8172 C.ar    1  ZINC000279331220   -0.1600
     22 C22        -0.9602    0.2001   46.2761 C.ar    1  ZINC000279331220   -0.0700
     23 C23        -1.0729    1.2904   47.1204 C.ar    1  ZINC000279331220   -0.1200
     24 C24        -1.4851    2.6354   46.5801 C.3     1  ZINC000279331220   -0.1100
     25 H25        -8.3117    6.3340   51.5680 H       1  ZINC000279331220    0.0800
     26 H26        -9.4075    5.2355   52.4404 H       1  ZINC000279331220    0.0700
     27 H27        -8.0688    6.0287   53.3047 H       1  ZINC000279331220    0.0700
     28 H28        -7.7733    3.9640   51.0761 H       1  ZINC000279331220    0.0600
     29 H29        -6.4345    4.7572   51.9404 H       1  ZINC000279331220    0.0600
     30 H30       -10.0243    2.7039   53.5222 H       1  ZINC000279331220    0.1300
     31 H31       -11.0082    0.5292   52.9201 H       1  ZINC000279331220    0.1300
     32 H32        -9.6406   -1.1742   51.7895 H       1  ZINC000279331220    0.1300
     33 H33        -7.2826   -0.7110   51.2556 H       1  ZINC000279331220    0.1300
     34 H34        -5.2201    0.3790   50.2628 H       1  ZINC000279331220    0.0600
     35 H35        -6.4888    1.5283   49.7751 H       1  ZINC000279331220    0.0600
     36 H36        -4.9362    3.1077   49.3365 H       1  ZINC000279331220    0.0800
     37 H37        -4.2972    2.9768   50.9927 H       1  ZINC000279331220    0.0800
     38 H38        -3.2140    0.7349   50.0190 H       1  ZINC000279331220    0.1000
     39 H39        -3.3909    1.6003   48.4737 H       1  ZINC000279331220    0.1000
     40 H40         0.7335    2.6668   50.5786 H       1  ZINC000279331220    0.0700
     41 H41         1.0181    2.9282   48.8411 H       1  ZINC000279331220    0.0800
     42 H42         0.0050    4.0685   49.7585 H       1  ZINC000279331220    0.0800
     43 H43        -0.0201   -2.0545   48.5957 H       1  ZINC000279331220    0.1600
     44 H44        -0.4845   -1.8915   46.1861 H       1  ZINC000279331220    0.1400
     45 H45        -1.1692    0.2950   45.2207 H       1  ZINC000279331220    0.1400
     46 H46        -2.5608    2.7623   46.7030 H       1  ZINC000279331220    0.0800
     47 H47        -0.9621    3.4216   47.1246 H       1  ZINC000279331220    0.0700
     48 H48        -1.2308    2.6953   45.5219 H       1  ZINC000279331220    0.0700
@<TRIPOS>BOND
     1     1     2    1
     2     1    25    1
     3     1    26    1
     4     1    27    1
     5     2     3    1
     6     2    28    1
     7     2    29    1
     8     3     4    1
     9     4     9   ar
    10     4     5   ar
    11     5     6   ar
    12     5    30    1
    13     6     7   ar
    14     6    31    1
    15     7     8   ar
    16     7    32    1
    17     8     9   ar
    18     8    33    1
    19     9    10    1
    20    10    11    1
    21    11    12    1
    22    11    34    1
    23    11    35    1
    24    12    13    1
    25    12    36    1
    26    12    37    1
    27    13    14    1
    28    13    38    1
    29    13    39    1
    30    14    15    2
    31    14    16   am
    32    16    17    1
    33    16    18    1
    34    17    40    1
    35    17    41    1
    36    17    42    1
    37    18    23   ar
    38    18    19   ar
    39    19    20   ar
    40    20    21   ar
    41    20    43    1
    42    21    22   ar
    43    21    44    1
    44    22    23   ar
    45    22    45    1
    46    23    24    1
    47    24    46    1
    48    24    47    1
    49    24    48    1
@<TRIPOS>SUBSTRUCTURE
     1 ZINC000279331220        1 TEMP              0 ****  ****    0 ROOT


##########                                Name:    ZINC000642096826
##########                DOCK_Rotatable_Bonds:                  12
##########                         Heavy_Atoms:                  25
##########                    Molecular_Weight:             345.485
##########                DOCK_Rotatable_Bonds:                  12
##########                       Formal_Charge:          0.00999919
##########                     HBond_Acceptors:                   5
##########                        HBond_Donors:                   1
##########                         Heavy_Atoms:                  25
##########                          Grid_Score:          -30.668995
##########                     Grid_vdw_energy:          -30.182442
##########                      Grid_es_energy:           -0.486554
##########           Internal_energy_repulsive:           17.906404

@<TRIPOS>MOLECULE
ZINC000642096826
 56 57 1 0 0
SMALL
USER_CHARGES


@<TRIPOS>ATOM
      1 C1        -11.7906    0.2624   51.4085 C.3     1  ZINC000642096826   -0.1500
      2 C2        -10.7695   -0.8674   51.5564 C.3     1  ZINC000642096826   -0.1400
      3 C3        -10.1264   -0.7954   52.9428 C.3     1  ZINC000642096826    0.1200
      4 N4         -9.5009    0.5170   53.1233 N.am    1  ZINC000642096826   -0.6200
      5 C5        -10.1664    1.5404   53.9332 C.3     1  ZINC000642096826    0.1100
      6 C6         -9.5512    1.5623   55.3339 C.3     1  ZINC000642096826   -0.1400
      7 C7        -10.2418    2.6356   56.1776 C.3     1  ZINC000642096826   -0.1500
      8 C8         -8.3131    0.7828   52.5445 C.2     1  ZINC000642096826    0.5200
      9 O9         -7.7629   -0.0639   51.8729 O.2     1  ZINC000642096826   -0.5200
     10 C10        -7.6688    2.1323   52.7317 C.3     1  ZINC000642096826    0.0400
     11 N11        -6.5707    2.2884   51.7686 N.3     1  ZINC000642096826   -0.5200
     12 C12        -6.7494    3.5009   50.9586 C.3     1  ZINC000642096826    0.0100
     13 C13        -5.2697    2.2980   52.4506 C.3     1  ZINC000642096826    0.0900
     14 C14        -4.1651    2.2917   51.4254 C.ar    1  ZINC000642096826   -0.0500
     15 C15        -4.1463    1.3215   50.4392 C.ar    1  ZINC000642096826   -0.1000
     16 C16        -3.1377    1.3097   49.4980 C.ar    1  ZINC000642096826   -0.0600
     17 C17        -2.1351    2.2799   49.5420 C.ar    1  ZINC000642096826   -0.1400
     18 C18        -1.0515    2.2736   48.5363 C.2     1  ZINC000642096826    0.5600
     19 O19         0.1065    2.1697   48.8911 O.2     1  ZINC000642096826   -0.5300
     20 N20        -1.3475    2.3831   47.2260 N.am    1  ZINC000642096826   -0.7000
     21 C21        -0.2736    2.3787   46.2295 C.3     1  ZINC000642096826    0.0800
     22 C22        -0.2954    1.2729   45.1723 C.3     1  ZINC000642096826   -0.1900
     23 C23        -0.6499    2.7097   44.7840 C.3     1  ZINC000642096826   -0.1900
     24 C24        -2.1602    3.2560   50.5393 C.ar    1  ZINC000642096826   -0.0900
     25 C25        -3.1774    3.2595   51.4713 C.ar    1  ZINC000642096826   -0.1200
     26 H26       -12.5612    0.1580   52.1723 H       1  ZINC000642096826    0.0600
     27 H27       -11.2893    1.2230   51.5270 H       1  ZINC000642096826    0.0600
     28 H28       -12.2487    0.2111   50.4208 H       1  ZINC000642096826    0.0600
     29 H29       -11.2708   -1.8280   51.4378 H       1  ZINC000642096826    0.0600
     30 H30        -9.9989   -0.7630   50.7925 H       1  ZINC000642096826    0.0600
     31 H31       -10.8908   -0.9416   53.7059 H       1  ZINC000642096826    0.0800
     32 H32        -9.3692   -1.5742   53.0329 H       1  ZINC000642096826    0.0800
     33 H33       -10.0369    2.5159   53.4642 H       1  ZINC000642096826    0.0800
     34 H34       -11.2295    1.3110   54.0068 H       1  ZINC000642096826    0.0800
     35 H35        -9.6850    0.5883   55.8046 H       1  ZINC000642096826    0.0700
     36 H36        -8.4872    1.7870   55.2600 H       1  ZINC000642096826    0.0700
     37 H37        -9.8035    2.6511   57.1754 H       1  ZINC000642096826    0.0600
     38 H38       -10.1080    3.6096   55.7068 H       1  ZINC000642096826    0.0600
     39 H39       -11.3058    2.4108   56.2515 H       1  ZINC000642096826    0.0600
     40 H40        -8.4099    2.9145   52.5679 H       1  ZINC000642096826    0.0600
     41 H41        -7.2766    2.2099   53.7457 H       1  ZINC000642096826    0.1000
     42 H42        -6.7690    4.3739   51.6109 H       1  ZINC000642096826    0.0200
     43 H43        -5.9228    3.5922   50.2540 H       1  ZINC000642096826    0.0700
     44 H44        -7.6890    3.4361   50.4098 H       1  ZINC000642096826    0.0900
     45 H45        -5.1888    3.1937   53.0664 H       1  ZINC000642096826    0.0500
     46 H46        -5.1841    1.4138   53.0823 H       1  ZINC000642096826    0.0900
     47 H47        -4.9227    0.5715   50.4063 H       1  ZINC000642096826    0.1300
     48 H48        -3.1237    0.5515   48.7291 H       1  ZINC000642096826    0.1400
     49 H49        -2.2716    2.4648   46.9428 H       1  ZINC000642096826    0.4000
     50 H50         0.6998    2.7156   46.5859 H       1  ZINC000642096826    0.1400
     51 H51         0.6638    0.8819   44.8331 H       1  ZINC000642096826    0.1000
     52 H52        -1.1087    0.5486   45.2182 H       1  ZINC000642096826    0.1000
     53 H53        -1.6966    2.9306   44.5743 H       1  ZINC000642096826    0.1000
     54 H54         0.0761    3.2640   44.1891 H       1  ZINC000642096826    0.1100
     55 H55        -1.3872    4.0092   50.5790 H       1  ZINC000642096826    0.1200
     56 H56        -3.1982    4.0145   52.2433 H       1  ZINC000642096826    0.1300
@<TRIPOS>BOND
     1     1     2    1
     2     1    26    1
     3     1    27    1
     4     1    28    1
     5     2     3    1
     6     2    29    1
     7     2    30    1
     8     3     4    1
     9     3    31    1
    10     3    32    1
    11     4     5    1
    12     4     8   am
    13     5     6    1
    14     5    33    1
    15     5    34    1
    16     6     7    1
    17     6    35    1
    18     6    36    1
    19     7    37    1
    20     7    38    1
    21     7    39    1
    22     8     9    2
    23     8    10    1
    24    10    11    1
    25    10    40    1
    26    10    41    1
    27    11    12    1
    28    11    13    1
    29    12    42    1
    30    12    43    1
    31    12    44    1
    32    13    14    1
    33    13    45    1
    34    13    46    1
    35    14    25   ar
    36    14    15   ar
    37    15    16   ar
    38    15    47    1
    39    16    17   ar
    40    16    48    1
    41    17    18    1
    42    17    24   ar
    43    18    19    2
    44    18    20   am
    45    20    21    1
    46    20    49    1
    47    21    23    1
    48    21    22    1
    49    21    50    1
    50    22    23    1
    51    22    51    1
    52    22    52    1
    53    23    53    1
    54    23    54    1
    55    24    25   ar
    56    24    55    1
    57    25    56    1
@<TRIPOS>SUBSTRUCTURE
     1 ZINC000642096826        1 TEMP              0 ****  ****    0 ROOT


##########                                Name:    ZINC000451019064
##########                DOCK_Rotatable_Bonds:                   8
##########                         Heavy_Atoms:                  23
##########                    Molecular_Weight:             346.534
##########                DOCK_Rotatable_Bonds:                   8
##########                       Formal_Charge:          -0.0200008
##########                     HBond_Acceptors:                   6
##########                        HBond_Donors:                   1
##########                         Heavy_Atoms:                  23
##########                          Grid_Score:          -30.667238
##########                     Grid_vdw_energy:          -30.795799
##########                      Grid_es_energy:            0.128561
##########           Internal_energy_repulsive:            9.983827

@<TRIPOS>MOLECULE
ZINC000451019064
 57 58 1 0 0
SMALL
USER_CHARGES


@<TRIPOS>ATOM
      1 C1          3.0032   -0.3831   48.0702 C.3     1  ZINC000451019064   -0.1500
      2 C2          1.7645    0.3417   47.5395 C.3     1  ZINC000451019064    0.0900
      3 H3          2.0129    1.3825   47.3320 H       1  ZINC000451019064    0.0700
      4 C4          0.6491    0.2811   48.5865 C.3     1  ZINC000451019064    0.0200
      5 N5         -0.5622    0.9111   48.0414 N.3     1  ZINC000451019064   -0.5400
      6 C6         -1.6421    0.9248   49.0371 C.3     1  ZINC000451019064    0.0600
      7 C7         -2.2771    2.3161   49.0817 C.3     1  ZINC000451019064   -0.1300
      8 C8         -2.9734    2.5160   50.4293 C.3     1  ZINC000451019064    0.1100
      9 N9         -3.9475    1.4422   50.6397 N.am    1  ZINC000451019064   -1.1200
     10 S10        -5.5585    1.8007   50.7759 S.o2    1  ZINC000451019064    2.6100
     11 O11        -5.8615    2.5111   49.5832 O.2     1  ZINC000451019064   -0.9600
     12 O12        -6.1727    0.5514   51.0607 O.2     1  ZINC000451019064   -0.9500
     13 C13        -5.6572    2.9012   52.2147 C.3     1  ZINC000451019064   -0.6300
     14 C14        -6.8678    3.8252   52.0680 C.3     1  ZINC000451019064   -0.1100
     15 C15        -8.1534    3.0085   52.2131 C.3     1  ZINC000451019064   -0.0800
     16 C16        -8.3211    2.5761   53.6711 C.3     1  ZINC000451019064   -0.1200
     17 C17        -9.6067    1.7594   53.8163 C.3     1  ZINC000451019064   -0.1200
     18 C18       -10.8042    2.6144   53.3970 C.3     1  ZINC000451019064   -0.1200
     19 C19       -10.6365    3.0467   51.9389 C.3     1  ZINC000451019064   -0.1200
     20 C20        -9.3508    3.8635   51.7938 C.3     1  ZINC000451019064   -0.1200
     21 C21        -0.9911    0.2351   46.8082 C.3     1  ZINC000451019064    0.0200
     22 C22         0.1408    0.2961   45.7792 C.3     1  ZINC000451019064    0.0900
     23 H23         0.3414    1.3356   45.5199 H       1  ZINC000451019064    0.0700
     24 C24        -0.2693   -0.4740   44.5223 C.3     1  ZINC000451019064   -0.1500
     25 O25         1.3191   -0.2919   46.3372 O.3     1  ZINC000451019064   -0.3800
     26 H26         3.7964   -0.3410   47.3238 H       1  ZINC000451019064    0.0700
     27 H27         3.3412    0.0993   48.9873 H       1  ZINC000451019064    0.0700
     28 H28         2.7542   -1.4238   48.2776 H       1  ZINC000451019064    0.0600
     29 H29         0.4384   -0.7592   48.8340 H       1  ZINC000451019064    0.0400
     30 H30         0.9635    0.8132   49.4843 H       1  ZINC000451019064    0.0900
     31 H31        -2.3982    0.1889   48.7633 H       1  ZINC000451019064    0.0400
     32 H32        -1.2350    0.6797   50.0180 H       1  ZINC000451019064    0.0800
     33 H33        -1.5029    3.0730   48.9569 H       1  ZINC000451019064    0.0800
     34 H34        -3.0079    2.4078   48.2781 H       1  ZINC000451019064    0.0800
     35 H35        -2.2318    2.4955   51.2280 H       1  ZINC000451019064    0.0800
     36 H36        -3.4861    3.4779   50.4342 H       1  ZINC000451019064    0.0700
     37 H37        -3.6489    0.5212   50.6991 H       1  ZINC000451019064    0.4200
     38 H38        -5.7627    2.3053   53.1214 H       1  ZINC000451019064    0.1300
     39 H39        -4.7485    3.4999   52.2772 H       1  ZINC000451019064    0.1400
     40 H40        -6.8352    4.5922   52.8418 H       1  ZINC000451019064    0.0800
     41 H41        -6.8469    4.2984   51.0863 H       1  ZINC000451019064    0.0800
     42 H42        -8.0967    2.1255   51.5766 H       1  ZINC000451019064    0.0800
     43 H43        -7.4680    1.9670   53.9699 H       1  ZINC000451019064    0.0600
     44 H44        -8.3777    3.4591   54.3077 H       1  ZINC000451019064    0.0700
     45 H45        -9.5500    0.8765   53.1798 H       1  ZINC000451019064    0.0600
     46 H46        -9.7262    1.4514   54.8551 H       1  ZINC000451019064    0.0600
     47 H47       -11.7200    2.0326   53.5004 H       1  ZINC000451019064    0.0600
     48 H48       -10.8608    3.4974   54.0335 H       1  ZINC000451019064    0.0600
     49 H49       -10.5798    2.1638   51.3023 H       1  ZINC000451019064    0.0600
     50 H50       -11.4896    3.6559   51.6401 H       1  ZINC000451019064    0.0600
     51 H51        -9.4075    4.7465   52.4303 H       1  ZINC000451019064    0.0700
     52 H52        -9.2314    4.1715   50.7550 H       1  ZINC000451019064    0.0600
     53 H53        -1.2280   -0.8060   47.0274 H       1  ZINC000451019064    0.0400
     54 H54        -1.8740    0.7336   46.4081 H       1  ZINC000451019064    0.0900
     55 H55        -1.1689   -0.0265   44.0995 H       1  ZINC000451019064    0.0700
     56 H56         0.5369   -0.4302   43.7901 H       1  ZINC000451019064    0.0700
     57 H57        -0.4683   -1.5137   44.7819 H       1  ZINC000451019064    0.0600
@<TRIPOS>BOND
     1     1     2    1
     2     1    26    1
     3     1    27    1
     4     1    28    1
     5     2     3    1
     6     2    25    1
     7     2     4    1
     8     4     5    1
     9     4    29    1
    10     4    30    1
    11     5     6    1
    12     5    21    1
    13     6     7    1
    14     6    31    1
    15     6    32    1
    16     7     8    1
    17     7    33    1
    18     7    34    1
    19     8     9    1
    20     8    35    1
    21     8    36    1
    22     9    10   am
    23     9    37    1
    24    10    11    2
    25    10    12    2
    26    10    13    1
    27    13    14    1
    28    13    38    1
    29    13    39    1
    30    14    15    1
    31    14    40    1
    32    14    41    1
    33    15    20    1
    34    15    16    1
    35    15    42    1
    36    16    17    1
    37    16    43    1
    38    16    44    1
    39    17    18    1
    40    17    45    1
    41    17    46    1
    42    18    19    1
    43    18    47    1
    44    18    48    1
    45    19    20    1
    46    19    49    1
    47    19    50    1
    48    20    51    1
    49    20    52    1
    50    21    22    1
    51    21    53    1
    52    21    54    1
    53    22    23    1
    54    22    24    1
    55    22    25    1
    56    24    55    1
    57    24    56    1
    58    24    57    1
@<TRIPOS>SUBSTRUCTURE
     1 ZINC000451019064        1 TEMP              0 ****  ****    0 ROOT


##########                                Name:    ZINC000301324012
##########                DOCK_Rotatable_Bonds:                   7
##########                         Heavy_Atoms:                  28
##########                    Molecular_Weight:               415.9
##########                DOCK_Rotatable_Bonds:                   7
##########                       Formal_Charge:          -0.0100002
##########                     HBond_Acceptors:                   8
##########                        HBond_Donors:                   2
##########                         Heavy_Atoms:                  28
##########                          Grid_Score:          -30.663233
##########                     Grid_vdw_energy:          -29.408712
##########                      Grid_es_energy:           -1.254521
##########           Internal_energy_repulsive:           12.872604

@<TRIPOS>MOLECULE
ZINC000301324012
 46 48 1 0 0
SMALL
USER_CHARGES


@<TRIPOS>ATOM
      1 C1        -11.8982   -0.5987   51.3212 C.3     1  ZINC000301324012   -0.1600
      2 C2        -11.2944    0.3121   52.3921 C.3     1  ZINC000301324012    0.2000
      3 H3        -11.6562    1.3304   52.2491 H       1  ZINC000301324012    0.1100
      4 N4        -11.6911   -0.1651   53.7192 N.am    1  ZINC000301324012   -0.7100
      5 C5        -11.7060    0.6855   54.7645 C.2     1  ZINC000301324012    0.5500
      6 O6        -11.3920    1.8490   54.6059 O.2     1  ZINC000301324012   -0.5300
      7 C7        -12.1046    0.2034   56.1041 C.ar    1  ZINC000301324012   -0.0700
      8 C8        -12.5849    1.1018   57.0582 C.ar    1  ZINC000301324012   -0.1100
      9 C9        -12.9555    0.6454   58.3061 C.ar    1  ZINC000301324012   -0.0200
     10 C10       -12.8517   -0.6997   58.6130 C.ar    1  ZINC000301324012   -0.6600
     11 S11       -13.3269   -1.2744   60.2095 S.o2    1  ZINC000301324012    2.6900
     12 O12       -13.5242   -0.1170   61.0102 O.2     1  ZINC000301324012   -0.9400
     13 O13       -14.3335   -2.2551   59.9997 O.2     1  ZINC000301324012   -0.9400
     14 N14       -12.0247   -2.0707   60.8517 N.am    1  ZINC000301324012   -1.0500
     15 C15       -10.8175   -1.3937   61.0450 C.ar    1  ZINC000301324012    0.1600
     16 C16       -10.7329   -0.3772   61.9870 C.ar    1  ZINC000301324012   -0.1600
     17 C17        -9.5380    0.2900   62.1758 C.ar    1  ZINC000301324012   -0.0800
     18 C18        -8.4269   -0.0526   61.4279 C.ar    1  ZINC000301324012   -0.1200
     19 C19        -8.5068   -1.0647   60.4885 C.ar    1  ZINC000301324012   -0.0900
     20 C20        -9.6969   -1.7405   60.2987 C.ar    1  ZINC000301324012   -0.0600
     21 Cl21       -9.7968   -3.0106   59.1195 Cl      1  ZINC000301324012   -0.0600
     22 C22       -12.3769   -1.5957   57.6717 C.ar    1  ZINC000301324012   -0.0200
     23 C23       -12.0078   -1.1531   56.4183 C.ar    1  ZINC000301324012   -0.0800
     24 C24        -9.7919    0.2923   52.2794 C.ar    1  ZINC000301324012    0.1200
     25 C25        -9.0673    1.4218   52.6090 C.ar    1  ZINC000301324012   -0.1600
     26 C26        -7.6850    1.3931   52.5022 C.ar    1  ZINC000301324012   -0.0700
     27 C27        -7.0812    0.2238   52.0660 C.ar    1  ZINC000301324012   -0.1700
     28 C28        -7.8714   -0.8665   51.7543 C.ar    1  ZINC000301324012    0.1100
     29 N29        -9.1832   -0.8047   51.8726 N.ar    1  ZINC000301324012   -0.4900
     30 H30       -11.6033   -0.2437   50.3338 H       1  ZINC000301324012    0.0700
     31 H31       -11.5366   -1.6169   51.4642 H       1  ZINC000301324012    0.0600
     32 H32       -12.9851   -0.5844   51.4027 H       1  ZINC000301324012    0.0700
     33 H33       -11.9427   -1.0933   53.8456 H       1  ZINC000301324012    0.4100
     34 H34       -12.6657    2.1522   56.8201 H       1  ZINC000301324012    0.1400
     35 H35       -13.3273    1.3396   59.0453 H       1  ZINC000301324012    0.1500
     36 H36       -12.0999   -3.0071   61.0934 H       1  ZINC000301324012    0.4300
     37 H37       -11.6004   -0.1083   62.5713 H       1  ZINC000301324012    0.1700
     38 H38        -9.4719    1.0808   62.9085 H       1  ZINC000301324012    0.1400
     39 H39        -7.4944    0.4713   61.5773 H       1  ZINC000301324012    0.1400
     40 H40        -7.6369   -1.3298   59.9059 H       1  ZINC000301324012    0.1400
     41 H41       -12.2987   -2.6445   57.9175 H       1  ZINC000301324012    0.1500
     42 H42       -11.6377   -1.8536   55.6842 H       1  ZINC000301324012    0.1500
     43 H43        -9.5713    2.3160   52.9450 H       1  ZINC000301324012    0.1400
     44 H44        -7.0930    2.2610   52.7525 H       1  ZINC000301324012    0.1400
     45 H45        -6.0070    0.1659   51.9706 H       1  ZINC000301324012    0.1400
     46 H46        -7.4088   -1.7809   51.4134 H       1  ZINC000301324012    0.1600
@<TRIPOS>BOND
     1     1     2    1
     2     1    30    1
     3     1    31    1
     4     1    32    1
     5     2     3    1
     6     2     4    1
     7     2    24    1
     8     4     5   am
     9     4    33    1
    10     5     6    2
    11     5     7    1
    12     7    23   ar
    13     7     8   ar
    14     8     9   ar
    15     8    34    1
    16     9    10   ar
    17     9    35    1
    18    10    11    1
    19    10    22   ar
    20    11    12    2
    21    11    13    2
    22    11    14   am
    23    14    15    1
    24    14    36    1
    25    15    20   ar
    26    15    16   ar
    27    16    17   ar
    28    16    37    1
    29    17    18   ar
    30    17    38    1
    31    18    19   ar
    32    18    39    1
    33    19    20   ar
    34    19    40    1
    35    20    21    1
    36    22    23   ar
    37    22    41    1
    38    23    42    1
    39    24    29   ar
    40    24    25   ar
    41    25    26   ar
    42    25    43    1
    43    26    27   ar
    44    26    44    1
    45    27    28   ar
    46    27    45    1
    47    28    29   ar
    48    28    46    1
@<TRIPOS>SUBSTRUCTURE
     1 ZINC000301324012        1 TEMP              0 ****  ****    0 ROOT


##########                                Name:    ZINC001078110631
##########                DOCK_Rotatable_Bonds:                   7
##########                         Heavy_Atoms:                  25
##########                    Molecular_Weight:             353.369
##########                DOCK_Rotatable_Bonds:                   7
##########                       Formal_Charge:           0.0100006
##########                     HBond_Acceptors:                   8
##########                        HBond_Donors:                   2
##########                         Heavy_Atoms:                  25
##########                          Grid_Score:          -30.661636
##########                     Grid_vdw_energy:          -29.403208
##########                      Grid_es_energy:           -1.258429
##########           Internal_energy_repulsive:            7.697467

@<TRIPOS>MOLECULE
ZINC001078110631
 46 48 1 0 0
SMALL
USER_CHARGES


@<TRIPOS>ATOM
      1 O1         -1.7151    2.4896   50.4324 O.2     1  ZINC001078110631   -0.5100
      2 C2         -2.4113    1.8531   49.6652 C.2     1  ZINC001078110631    0.5600
      3 N3         -3.6838    1.5578   49.9969 N.am    1  ZINC001078110631   -0.7200
      4 C4         -4.2262    1.9984   51.2846 C.3     1  ZINC001078110631    0.1500
      5 H5         -3.5742    1.6804   52.0981 H       1  ZINC001078110631    0.1200
      6 C6         -5.6497    1.4364   51.4873 C.3     1  ZINC001078110631    0.0300
      7 N7         -6.3894    2.5285   52.1709 N.3     1  ZINC001078110631   -0.5000
      8 C8         -7.8397    2.3704   51.9979 C.3     1  ZINC001078110631    0.0300
      9 C9         -8.2996    1.0883   52.6947 C.3     1  ZINC001078110631    0.1300
     10 N10        -9.7318    0.8906   52.4577 N.am    1  ZINC001078110631   -0.6200
     11 C11       -10.6927    1.9781   52.2388 C.3     1  ZINC001078110631    0.1000
     12 C12       -11.9373    1.3089   51.6147 C.3     1  ZINC001078110631   -0.1300
     13 C13       -11.8127   -0.1402   52.1397 C.3     1  ZINC001078110631   -0.1600
     14 C14       -10.3335   -0.3103   52.4072 C.2     1  ZINC001078110631    0.5200
     15 O15        -9.7732   -1.3749   52.5610 O.2     1  ZINC001078110631   -0.5200
     16 C16        -5.9061    3.7671   51.5083 C.3     1  ZINC001078110631    0.0000
     17 C17        -4.3923    3.5320   51.2994 C.3     1  ZINC001078110631    0.1000
     18 H18        -4.0710    3.9566   50.3483 H       1  ZINC001078110631    0.0700
     19 O19        -3.6477    4.1064   52.3753 O.3     1  ZINC001078110631   -0.5500
     20 C20        -1.8650    1.4093   48.3681 C.ar    1  ZINC001078110631   -0.1900
     21 C21        -1.7348    2.3170   47.3144 C.ar    1  ZINC001078110631   -0.0300
     22 C22        -1.2241    1.8974   46.1054 C.ar    1  ZINC001078110631   -0.1700
     23 C23        -0.8389    0.5762   45.9317 C.ar    1  ZINC001078110631    0.1600
     24 F24        -0.3391    0.1719   44.7435 F       1  ZINC001078110631   -0.1200
     25 C25        -0.9642   -0.3306   46.9716 C.ar    1  ZINC001078110631   -0.2000
     26 C26        -1.4699    0.0787   48.1905 C.ar    1  ZINC001078110631    0.2000
     27 F27        -1.5921   -0.8056   49.2045 F       1  ZINC001078110631   -0.1000
     28 H28        -4.2405    1.0536   49.3831 H       1  ZINC001078110631    0.4000
     29 H29        -6.1095    1.2100   50.5253 H       1  ZINC001078110631    0.0500
     30 H30        -5.6209    0.5458   52.1150 H       1  ZINC001078110631    0.1000
     31 H31        -8.3532    3.2263   52.4360 H       1  ZINC001078110631    0.0400
     32 H32        -8.0744    2.3107   50.9353 H       1  ZINC001078110631    0.0800
     33 H33        -7.7447    0.2390   52.2961 H       1  ZINC001078110631    0.0900
     34 H34        -8.1167    1.1713   53.7660 H       1  ZINC001078110631    0.0800
     35 H35       -10.9529    2.4481   53.1871 H       1  ZINC001078110631    0.0700
     36 H36       -10.2773    2.7161   51.5526 H       1  ZINC001078110631    0.0800
     37 H37       -12.8536    1.7767   51.9747 H       1  ZINC001078110631    0.0900
     38 H38       -11.8895    1.3348   50.5260 H       1  ZINC001078110631    0.0800
     39 H39       -12.3870   -0.2641   53.0578 H       1  ZINC001078110631    0.1100
     40 H40       -12.1446   -0.8503   51.3822 H       1  ZINC001078110631    0.1000
     41 H41        -6.4060    3.9054   50.5497 H       1  ZINC001078110631    0.0600
     42 H42        -6.0704    4.6314   52.1519 H       1  ZINC001078110631    0.0900
     43 H43        -3.8486    3.7244   53.2407 H       1  ZINC001078110631    0.3800
     44 H44        -2.0342    3.3461   47.4470 H       1  ZINC001078110631    0.1500
     45 H45        -1.1237    2.5991   45.2907 H       1  ZINC001078110631    0.1500
     46 H46        -0.6627   -1.3581   46.8305 H       1  ZINC001078110631    0.1600
@<TRIPOS>BOND
     1     1     2    2
     2     2     3   am
     3     2    20    1
     4     3     4    1
     5     3    28    1
     6     4     5    1
     7     4    17    1
     8     4     6    1
     9     6     7    1
    10     6    29    1
    11     6    30    1
    12     7     8    1
    13     7    16    1
    14     8     9    1
    15     8    31    1
    16     8    32    1
    17     9    10    1
    18     9    33    1
    19     9    34    1
    20    10    14   am
    21    10    11    1
    22    11    12    1
    23    11    35    1
    24    11    36    1
    25    12    13    1
    26    12    37    1
    27    12    38    1
    28    13    14    1
    29    13    39    1
    30    13    40    1
    31    14    15    2
    32    16    17    1
    33    16    41    1
    34    16    42    1
    35    17    18    1
    36    17    19    1
    37    19    43    1
    38    20    26   ar
    39    20    21   ar
    40    21    22   ar
    41    21    44    1
    42    22    23   ar
    43    22    45    1
    44    23    24    1
    45    23    25   ar
    46    25    26   ar
    47    25    46    1
    48    26    27    1
@<TRIPOS>SUBSTRUCTURE
     1 ZINC001078110631        1 TEMP              0 ****  ****    0 ROOT


##########                                Name:    ZINC001456607258
##########                DOCK_Rotatable_Bonds:                   9
##########                         Heavy_Atoms:                  25
##########                    Molecular_Weight:             339.437
##########                DOCK_Rotatable_Bonds:                   9
##########                       Formal_Charge:          -0.0200009
##########                     HBond_Acceptors:                   5
##########                        HBond_Donors:                   2
##########                         Heavy_Atoms:                  25
##########                          Grid_Score:          -30.648632
##########                     Grid_vdw_energy:          -29.768236
##########                      Grid_es_energy:           -0.880396
##########           Internal_energy_repulsive:           17.208084

@<TRIPOS>MOLECULE
ZINC001456607258
 50 52 1 0 0
SMALL
USER_CHARGES


@<TRIPOS>ATOM
      1 C1         -0.3791    3.3343   52.2941 C.3     1  ZINC001456607258   -0.1600
      2 C2         -0.7379    3.8498   50.8989 C.3     1  ZINC001456607258   -0.1100
      3 C3         -1.0916    2.6679   49.9939 C.3     1  ZINC001456607258   -0.1000
      4 H4         -0.7904    1.7380   50.4763 H       1  ZINC001456607258    0.0900
      5 C5         -0.3583    2.8106   48.6586 C.3     1  ZINC001456607258   -0.0700
      6 C6         -0.3750    1.4900   47.9328 C.ar    1  ZINC001456607258   -0.0800
      7 C7         -1.1008    1.3525   46.7645 C.ar    1  ZINC001456607258   -0.1200
      8 C8         -1.1161    0.1412   46.0987 C.ar    1  ZINC001456607258   -0.1200
      9 C9         -0.4053   -0.9327   46.6012 C.ar    1  ZINC001456607258   -0.1200
     10 C10         0.3213   -0.7950   47.7690 C.ar    1  ZINC001456607258   -0.1200
     11 C11         0.3401    0.4176   48.4324 C.ar    1  ZINC001456607258   -0.1200
     12 C12        -2.5787    2.6489   49.7507 C.2     1  ZINC001456607258    0.5200
     13 O13        -3.0092    2.7241   48.6194 O.2     1  ZINC001456607258   -0.5300
     14 N14        -3.4304    2.5483   50.7905 N.am    1  ZINC001456607258   -0.7300
     15 C15        -4.8760    2.5298   50.5542 C.3     1  ZINC001456607258    0.1300
     16 C16        -5.5956    2.0865   51.8294 C.3     1  ZINC001456607258   -0.1400
     17 C17        -6.3635    3.2197   52.5337 C.3     1  ZINC001456607258    0.1100
     18 N18        -7.4396    2.2299   52.7349 N.am    1  ZINC001456607258   -0.6500
     19 C19        -8.4447    2.0947   53.6226 C.2     1  ZINC001456607258    0.6100
     20 O20        -8.5943    2.9211   54.5023 O.2     1  ZINC001456607258   -0.5400
     21 C21        -9.3618    0.9465   53.5271 C.2     1  ZINC001456607258   -0.2300
     22 C22        -9.4386    0.0383   52.5073 C.2     1  ZINC001456607258    0.0400
     23 N23       -10.4041   -0.8524   52.8032 N.pl3   1  ZINC001456607258   -0.5500
     24 C24       -10.9730   -0.5516   54.0065 C.2     1  ZINC001456607258   -0.0200
     25 C25       -10.3732    0.5419   54.5095 C.2     1  ZINC001456607258   -0.1400
     26 C26        -6.9727    1.4476   51.5739 C.3     1  ZINC001456607258    0.1100
     27 H27        -0.0394    4.1654   52.9122 H       1  ZINC001456607258    0.0600
     28 H28        -1.2578    2.8780   52.7500 H       1  ZINC001456607258    0.0600
     29 H29         0.4154    2.5925   52.2142 H       1  ZINC001456607258    0.0600
     30 H30        -1.5928    4.5224   50.9688 H       1  ZINC001456607258    0.0800
     31 H31         0.1133    4.3864   50.4798 H       1  ZINC001456607258    0.0700
     32 H32        -0.8554    3.5660   48.0501 H       1  ZINC001456607258    0.0800
     33 H33         0.6732    3.1119   48.8410 H       1  ZINC001456607258    0.0900
     34 H34        -1.6563    2.1915   46.3719 H       1  ZINC001456607258    0.1200
     35 H35        -1.6838    0.0336   45.1862 H       1  ZINC001456607258    0.1200
     36 H36        -0.4179   -1.8793   46.0814 H       1  ZINC001456607258    0.1200
     37 H37         0.8764   -1.6340   48.1618 H       1  ZINC001456607258    0.1200
     38 H38         0.9078    0.5252   49.3449 H       1  ZINC001456607258    0.1200
     39 H39        -3.0860    2.4881   51.6953 H       1  ZINC001456607258    0.4000
     40 H40        -5.2116    3.5290   50.2763 H       1  ZINC001456607258    0.0700
     41 H41        -5.1035    1.8328   49.7476 H       1  ZINC001456607258    0.0800
     42 H42        -4.9591    1.5049   52.4963 H       1  ZINC001456607258    0.1100
     43 H43        -5.8978    3.5566   53.4598 H       1  ZINC001456607258    0.0800
     44 H44        -6.6398    4.0406   51.8720 H       1  ZINC001456607258    0.0900
     45 H45        -8.8287    0.0362   51.6159 H       1  ZINC001456607258    0.1700
     46 H46       -10.6590   -1.6008   52.2412 H       1  ZINC001456607258    0.4200
     47 H47       -11.7710   -1.1043   54.4798 H       1  ZINC001456607258    0.1700
     48 H48       -10.5968    1.0296   55.4468 H       1  ZINC001456607258    0.1500
     49 H49        -7.4280    1.7478   50.6301 H       1  ZINC001456607258    0.0900
     50 H50        -6.9934    0.3695   51.7336 H       1  ZINC001456607258    0.0900
@<TRIPOS>BOND
     1     1     2    1
     2     1    27    1
     3     1    28    1
     4     1    29    1
     5     2     3    1
     6     2    30    1
     7     2    31    1
     8     3     4    1
     9     3     5    1
    10     3    12    1
    11     5     6    1
    12     5    32    1
    13     5    33    1
    14     6    11   ar
    15     6     7   ar
    16     7     8   ar
    17     7    34    1
    18     8     9   ar
    19     8    35    1
    20     9    10   ar
    21     9    36    1
    22    10    11   ar
    23    10    37    1
    24    11    38    1
    25    12    13    2
    26    12    14   am
    27    14    15    1
    28    14    39    1
    29    15    16    1
    30    15    40    1
    31    15    41    1
    32    16    26    1
    33    16    17    1
    34    16    42    1
    35    17    18    1
    36    17    43    1
    37    17    44    1
    38    18    19   am
    39    18    26    1
    40    19    20    2
    41    19    21    1
    42    21    25    1
    43    21    22    2
    44    22    23    1
    45    22    45    1
    46    23    24    1
    47    23    46    1
    48    24    25    2
    49    24    47    1
    50    25    48    1
    51    26    49    1
    52    26    50    1
@<TRIPOS>SUBSTRUCTURE
     1 ZINC001456607258        1 TEMP              0 ****  ****    0 ROOT


##########                                Name:    ZINC000442864105
##########                DOCK_Rotatable_Bonds:                   7
##########                         Heavy_Atoms:                  30
##########                    Molecular_Weight:              414.39
##########                DOCK_Rotatable_Bonds:                   7
##########                       Formal_Charge:           0.0200001
##########                     HBond_Acceptors:                  10
##########                        HBond_Donors:                   2
##########                         Heavy_Atoms:                  30
##########                          Grid_Score:          -30.644070
##########                     Grid_vdw_energy:          -29.659317
##########                      Grid_es_energy:           -0.984752
##########           Internal_energy_repulsive:           17.423758

@<TRIPOS>MOLECULE
ZINC000442864105
 47 50 1 0 0
SMALL
USER_CHARGES


@<TRIPOS>ATOM
      1 C1         -0.3111   -1.2747   48.3379 C.3     1  ZINC000442864105    0.0800
      2 N2          0.1168   -0.0697   49.0529 N.pl3   1  ZINC000442864105   -0.4900
      3 C3          1.4190    0.2874   49.2848 C.2     1  ZINC000442864105    0.0300
      4 C4          1.4620    1.4435   49.9645 C.2     1  ZINC000442864105   -0.1900
      5 C5          0.0750    1.8622   50.1868 C.ar    1  ZINC000442864105   -0.1600
      6 C6         -0.5164    2.9573   50.8197 C.ar    1  ZINC000442864105   -0.0200
      7 C7         -1.8771    3.0661   50.8604 C.ar    1  ZINC000442864105   -0.2100
      8 C8         -2.6818    2.0906   50.2738 C.ar    1  ZINC000442864105    0.2400
      9 N9         -4.0731    2.2168   50.3241 N.pl3   1  ZINC000442864105   -0.7400
     10 C10        -4.7540    2.3079   51.6181 C.3     1  ZINC000442864105    0.1100
     11 C11        -6.2325    2.0899   51.4242 C.2     1  ZINC000442864105    0.5100
     12 O12        -6.6243    1.2489   50.6429 O.2     1  ZINC000442864105   -0.5100
     13 N13        -7.1196    2.8295   52.1190 N.am    1  ZINC000442864105   -0.6600
     14 C14        -8.4928    2.6270   51.9389 C.ar    1  ZINC000442864105    0.1600
     15 C15        -9.0602    1.3978   52.2409 C.ar    1  ZINC000442864105   -0.0700
     16 C16       -10.4164    1.2002   52.0623 C.ar    1  ZINC000442864105   -0.1600
     17 C17       -11.0307   -0.1360   52.3911 C.3     1  ZINC000442864105    0.5100
     18 F18       -10.1955   -1.1593   51.9304 F       1  ZINC000442864105   -0.1700
     19 F19       -11.1863   -0.2492   53.7768 F       1  ZINC000442864105   -0.1700
     20 F20       -12.2807   -0.2398   51.7714 F       1  ZINC000442864105   -0.1700
     21 C21       -11.2114    2.2253   51.5831 C.ar    1  ZINC000442864105   -0.0600
     22 C22       -10.6544    3.4531   51.2791 C.ar    1  ZINC000442864105   -0.1100
     23 C23        -9.2956    3.6623   51.4607 C.ar    1  ZINC000442864105    0.1500
     24 N24        -8.7283    4.9074   51.1528 N.pl3   1  ZINC000442864105   -0.3300
     25 C25        -9.3706    5.9929   50.6800 C.2     1  ZINC000442864105    0.2800
     26 N26        -8.4905    6.9488   50.5241 N.2     1  ZINC000442864105   -0.5300
     27 C27        -7.2832    6.5151   50.8846 C.2     1  ZINC000442864105    0.2300
     28 N28        -7.3784    5.2729   51.2821 N.2     1  ZINC000442864105   -0.3400
     29 C29        -2.1136    0.9982   49.6414 C.ar    1  ZINC000442864105   -0.2100
     30 C30        -0.7297    0.8761   49.5870 C.ar    1  ZINC000442864105    0.1500
     31 H31        -0.3968   -1.0546   47.2738 H       1  ZINC000442864105    0.0700
     32 H32         0.4236   -2.0659   48.4871 H       1  ZINC000442864105    0.0800
     33 H33        -1.2784   -1.6001   48.7207 H       1  ZINC000442864105    0.0800
     34 H34         2.2829   -0.2778   48.9676 H       1  ZINC000442864105    0.1700
     35 H35         2.3503    1.9662   50.2871 H       1  ZINC000442864105    0.1400
     36 H36         0.1010    3.7166   51.2766 H       1  ZINC000442864105    0.1200
     37 H37        -2.3329    3.9135   51.3507 H       1  ZINC000442864105    0.1200
     38 H38        -4.5877    2.2440   49.5023 H       1  ZINC000442864105    0.4100
     39 H39        -4.3596    1.5463   52.2906 H       1  ZINC000442864105    0.1000
     40 H40        -4.5857    3.2951   52.0485 H       1  ZINC000442864105    0.1000
     41 H41        -6.8063    3.5020   52.7438 H       1  ZINC000442864105    0.4300
     42 H42        -8.4423    0.5952   52.6153 H       1  ZINC000442864105    0.1700
     43 H43       -12.2706    2.0658   51.4457 H       1  ZINC000442864105    0.1500
     44 H44       -11.2782    4.2513   50.9048 H       1  ZINC000442864105    0.1500
     45 H45       -10.4270    6.0620   50.4662 H       1  ZINC000442864105    0.2300
     46 H46        -6.3738    7.0969   50.8570 H       1  ZINC000442864105    0.2300
     47 H47        -2.7426    0.2459   49.1888 H       1  ZINC000442864105    0.1200
@<TRIPOS>BOND
     1     1     2    1
     2     1    31    1
     3     1    32    1
     4     1    33    1
     5     2    30    1
     6     2     3    1
     7     3     4    2
     8     3    34    1
     9     4     5    1
    10     4    35    1
    11     5    30   ar
    12     5     6   ar
    13     6     7   ar
    14     6    36    1
    15     7     8   ar
    16     7    37    1
    17     8     9    1
    18     8    29   ar
    19     9    10    1
    20     9    38    1
    21    10    11    1
    22    10    39    1
    23    10    40    1
    24    11    12    2
    25    11    13   am
    26    13    14    1
    27    13    41    1
    28    14    23   ar
    29    14    15   ar
    30    15    16   ar
    31    15    42    1
    32    16    17    1
    33    16    21   ar
    34    17    18    1
    35    17    19    1
    36    17    20    1
    37    21    22   ar
    38    21    43    1
    39    22    23   ar
    40    22    44    1
    41    23    24    1
    42    24    28    1
    43    24    25    1
    44    25    26    2
    45    25    45    1
    46    26    27    1
    47    27    28    2
    48    27    46    1
    49    29    30   ar
    50    29    47    1
@<TRIPOS>SUBSTRUCTURE
     1 ZINC000442864105        1 TEMP              0 ****  ****    0 ROOT


##########                                Name:    ZINC000549659617
##########                DOCK_Rotatable_Bonds:                   9
##########                         Heavy_Atoms:                  28
##########                    Molecular_Weight:              418.48
##########                DOCK_Rotatable_Bonds:                   9
##########                       Formal_Charge:          0.00999956
##########                     HBond_Acceptors:                   9
##########                        HBond_Donors:                   1
##########                         Heavy_Atoms:                  28
##########                          Grid_Score:          -30.629414
##########                     Grid_vdw_energy:          -30.845406
##########                      Grid_es_energy:            0.215992
##########           Internal_energy_repulsive:           20.931059

@<TRIPOS>MOLECULE
ZINC000549659617
 53 55 1 0 0
SMALL
USER_CHARGES


@<TRIPOS>ATOM
      1 C1          0.3711    4.9393   50.3343 C.3     1  ZINC000549659617   -0.1500
      2 C2         -0.8460    4.1576   49.8357 C.3     1  ZINC000549659617   -0.1500
      3 C3         -0.7115    2.6894   50.2447 C.3     1  ZINC000549659617    0.1100
      4 N4         -1.8002    1.9138   49.6450 N.am    1  ZINC000549659617   -0.6100
      5 C5         -3.0461    1.9977   50.1521 C.2     1  ZINC000549659617    0.7100
      6 O6         -3.9500    1.3553   49.6535 O.2     1  ZINC000549659617   -0.5700
      7 N7         -3.2901    2.7938   51.2120 N.am    1  ZINC000549659617   -0.7400
      8 C8         -4.6447    2.8863   51.7621 C.3     1  ZINC000549659617    0.2300
      9 H9         -5.0370    1.8837   51.9325 H       1  ZINC000549659617    0.1100
     10 C10        -4.6067    3.6392   53.0670 C.ar    1  ZINC000549659617   -0.0900
     11 C11        -3.6512    4.6164   53.2733 C.ar    1  ZINC000549659617   -0.0800
     12 C12        -3.6162    5.3072   54.4704 C.ar    1  ZINC000549659617   -0.1100
     13 C13        -4.5370    5.0209   55.4606 C.ar    1  ZINC000549659617   -0.0700
     14 C14        -5.4933    4.0440   55.2539 C.ar    1  ZINC000549659617   -0.1800
     15 C15        -6.4970    3.7315   56.3337 C.3     1  ZINC000549659617    0.5100
     16 F16        -7.6902    3.2941   55.7489 F       1  ZINC000549659617   -0.1800
     17 F17        -5.9897    2.7273   57.1654 F       1  ZINC000549659617   -0.1700
     18 F18        -6.7426    4.8829   57.0894 F       1  ZINC000549659617   -0.1700
     19 C19        -5.5309    3.3564   54.0555 C.ar    1  ZINC000549659617   -0.0500
     20 C20        -5.5476    3.6259   50.7727 C.3     1  ZINC000549659617   -0.1700
     21 C21        -6.6444    2.8175   50.0768 C.3     1  ZINC000549659617   -0.1700
     22 C22        -7.0123    3.8263   51.1666 C.3     1  ZINC000549659617   -0.1800
     23 C23        -1.5346    1.0471   48.4941 C.3     1  ZINC000549659617    0.1700
     24 H24        -2.4728    0.6717   48.0855 H       1  ZINC000549659617    0.1100
     25 C25        -0.6357   -0.1283   48.9159 C.3     1  ZINC000549659617   -0.1400
     26 C26        -0.0981   -0.8197   47.6472 C.3     1  ZINC000549659617   -0.5900
     27 S27        -0.0544    0.4917   46.3727 S.o2    1  ZINC000549659617    2.3900
     28 O28         1.2971    0.7983   46.0585 O.2     1  ZINC000549659617   -0.9300
     29 O29        -0.9668    0.1680   45.3324 O.2     1  ZINC000549659617   -0.9400
     30 C30        -0.7581    1.8325   47.4060 C.3     1  ZINC000549659617   -0.6100
     31 H31         0.2753    5.9853   50.0430 H       1  ZINC000549659617    0.0600
     32 H32         0.4284    4.8684   51.4205 H       1  ZINC000549659617    0.0600
     33 H33         1.2765    4.5211   49.8947 H       1  ZINC000549659617    0.0600
     34 H34        -1.7515    4.5757   50.2754 H       1  ZINC000549659617    0.0700
     35 H35        -0.9033    4.2285   48.7495 H       1  ZINC000549659617    0.0700
     36 H36         0.2457    2.3014   49.8964 H       1  ZINC000549659617    0.0800
     37 H37        -0.7631    2.6084   51.3304 H       1  ZINC000549659617    0.0900
     38 H38        -2.5687    3.3054   51.6105 H       1  ZINC000549659617    0.4000
     39 H39        -2.9317    4.8401   52.4996 H       1  ZINC000549659617    0.1300
     40 H40        -2.8692    6.0702   54.6320 H       1  ZINC000549659617    0.1400
     41 H41        -4.5092    5.5600   56.3960 H       1  ZINC000549659617    0.1400
     42 H42        -6.2780    2.5934   53.8940 H       1  ZINC000549659617    0.1400
     43 H43        -5.0671    4.4196   50.2006 H       1  ZINC000549659617    0.1100
     44 H44        -6.8856    3.0792   49.0465 H       1  ZINC000549659617    0.0900
     45 H45        -6.7228    1.7587   50.3238 H       1  ZINC000549659617    0.0900
     46 H46        -7.3327    3.4312   52.1306 H       1  ZINC000549659617    0.1200
     47 H47        -7.4956    4.7517   50.8535 H       1  ZINC000549659617    0.0900
     48 H48         0.1979    0.2432   49.5119 H       1  ZINC000549659617    0.1100
     49 H49        -1.2152   -0.8404   49.5036 H       1  ZINC000549659617    0.0900
     50 H50         0.9046   -1.2090   47.8242 H       1  ZINC000549659617    0.1400
     51 H51        -0.7682   -1.6229   47.3409 H       1  ZINC000549659617    0.1400
     52 H52        -1.4339    2.4571   46.8218 H       1  ZINC000549659617    0.1400
     53 H53         0.0344    2.4321   47.8540 H       1  ZINC000549659617    0.1600
@<TRIPOS>BOND
     1     1     2    1
     2     1    31    1
     3     1    32    1
     4     1    33    1
     5     2     3    1
     6     2    34    1
     7     2    35    1
     8     3     4    1
     9     3    36    1
    10     3    37    1
    11     4     5   am
    12     4    23    1
    13     5     6    2
    14     5     7   am
    15     7     8    1
    16     7    38    1
    17     8     9    1
    18     8    10    1
    19     8    20    1
    20    10    19   ar
    21    10    11   ar
    22    11    12   ar
    23    11    39    1
    24    12    13   ar
    25    12    40    1
    26    13    14   ar
    27    13    41    1
    28    14    15    1
    29    14    19   ar
    30    15    16    1
    31    15    17    1
    32    15    18    1
    33    19    42    1
    34    20    22    1
    35    20    21    1
    36    20    43    1
    37    21    22    1
    38    21    44    1
    39    21    45    1
    40    22    46    1
    41    22    47    1
    42    23    24    1
    43    23    30    1
    44    23    25    1
    45    25    26    1
    46    25    48    1
    47    25    49    1
    48    26    27    1
    49    26    50    1
    50    26    51    1
    51    27    28    2
    52    27    29    2
    53    27    30    1
    54    30    52    1
    55    30    53    1
@<TRIPOS>SUBSTRUCTURE
     1 ZINC000549659617        1 TEMP              0 ****  ****    0 ROOT


##########                                Name:    ZINC000899027326
##########                DOCK_Rotatable_Bonds:                   5
##########                         Heavy_Atoms:                  22
##########                    Molecular_Weight:             346.169
##########                DOCK_Rotatable_Bonds:                   5
##########                       Formal_Charge:           0.0300005
##########                     HBond_Acceptors:                   9
##########                        HBond_Donors:                   1
##########                         Heavy_Atoms:                  22
##########                          Grid_Score:          -30.604151
##########                     Grid_vdw_energy:          -30.098166
##########                      Grid_es_energy:           -0.505985
##########           Internal_energy_repulsive:            6.774967

@<TRIPOS>MOLECULE
ZINC000899027326
 35 36 1 0 0
SMALL
USER_CHARGES


@<TRIPOS>ATOM
      1 C1         -0.0505    1.7506   45.9188 C.3     1  ZINC000899027326   -0.1500
      2 C2          0.0312    1.6864   47.4453 C.3     1  ZINC000899027326    0.1100
      3 H3          0.8662    2.2852   47.8089 H       1  ZINC000899027326    0.1400
      4 C4         -1.2699    2.1512   48.0690 C.2     1  ZINC000899027326    0.5300
      5 O5         -1.7808    3.2458   47.9672 O.2     1  ZINC000899027326   -0.4500
      6 N6         -1.7408    1.0941   48.7596 N.am    1  ZINC000899027326   -0.3700
      7 N7         -2.9358    1.1009   49.4909 N.am    1  ZINC000899027326   -0.5000
      8 C8         -3.1037    1.9790   50.4995 C.2     1  ZINC000899027326    0.5200
      9 O9         -2.2207    2.7641   50.7732 O.2     1  ZINC000899027326   -0.4800
     10 C10        -4.3884    1.9852   51.2872 C.3     1  ZINC000899027326    0.0500
     11 O11        -5.4224    1.3690   50.5169 O.3     1  ZINC000899027326   -0.2700
     12 C12        -6.6143    1.1624   51.1372 C.ar    1  ZINC000899027326    0.1400
     13 C13        -6.9823   -0.1169   51.5253 C.ar    1  ZINC000899027326   -0.1900
     14 C14        -8.1943   -0.3252   52.1557 C.ar    1  ZINC000899027326   -0.0600
     15 C15        -9.0408    0.7414   52.3999 C.ar    1  ZINC000899027326   -0.0600
     16 Cl16      -10.5623    0.4765   53.1926 Cl      1  ZINC000899027326   -0.0500
     17 C17        -8.6761    2.0193   52.0137 C.ar    1  ZINC000899027326   -0.0600
     18 C18        -7.4623    2.2328   51.3881 C.ar    1  ZINC000899027326   -0.0500
     19 Cl19       -7.0047    3.8358   50.9036 Cl      1  ZINC000899027326   -0.0300
     20 C20        -0.9266    0.0371   48.6600 C.2     1  ZINC000899027326    0.7000
     21 O21        -1.1394   -1.0325   49.1966 O.2     1  ZINC000899027326   -0.5200
     22 N22         0.1577    0.2907   47.8993 N.am    1  ZINC000899027326   -0.6200
     23 C23         1.2437   -0.6409   47.5848 C.3     1  ZINC000899027326    0.1200
     24 H24        -0.8975    1.1568   45.5750 H       1  ZINC000899027326    0.0700
     25 H25        -0.1815    2.7862   45.6052 H       1  ZINC000899027326    0.0900
     26 H26         0.8693    1.3543   45.4887 H       1  ZINC000899027326    0.0900
     27 H27        -3.6425    0.4738   49.2712 H       1  ZINC000899027326    0.4300
     28 H28        -4.2480    1.4316   52.2156 H       1  ZINC000899027326    0.1100
     29 H29        -4.6693    3.0132   51.5160 H       1  ZINC000899027326    0.1100
     30 H30        -6.3222   -0.9502   51.3347 H       1  ZINC000899027326    0.1500
     31 H31        -8.4812   -1.3216   52.4576 H       1  ZINC000899027326    0.1500
     32 H32        -9.3382    2.8507   52.2052 H       1  ZINC000899027326    0.1500
     33 H33         1.0504   -1.5999   48.0656 H       1  ZINC000899027326    0.0900
     34 H34         1.3012   -0.7808   46.5054 H       1  ZINC000899027326    0.0700
     35 H35         2.1874   -0.2353   47.9494 H       1  ZINC000899027326    0.0700
@<TRIPOS>BOND
     1     1     2    1
     2     1    24    1
     3     1    25    1
     4     1    26    1
     5     2     3    1
     6     2    22    1
     7     2     4    1
     8     4     5    2
     9     4     6   am
    10     6     7    1
    11     6    20   am
    12     7     8   am
    13     7    27    1
    14     8     9    2
    15     8    10    1
    16    10    11    1
    17    10    28    1
    18    10    29    1
    19    11    12    1
    20    12    18   ar
    21    12    13   ar
    22    13    14   ar
    23    13    30    1
    24    14    15   ar
    25    14    31    1
    26    15    16    1
    27    15    17   ar
    28    17    18   ar
    29    17    32    1
    30    18    19    1
    31    20    21    2
    32    20    22   am
    33    22    23    1
    34    23    33    1
    35    23    34    1
    36    23    35    1
@<TRIPOS>SUBSTRUCTURE
     1 ZINC000899027326        1 TEMP              0 ****  ****    0 ROOT


##########                                Name:    ZINC001217683559
##########                DOCK_Rotatable_Bonds:                   3
##########                         Heavy_Atoms:                  25
##########                    Molecular_Weight:             397.234
##########                DOCK_Rotatable_Bonds:                   3
##########                       Formal_Charge:          0.00999987
##########                     HBond_Acceptors:                   7
##########                        HBond_Donors:                   0
##########                         Heavy_Atoms:                  25
##########                          Grid_Score:          -30.601254
##########                     Grid_vdw_energy:          -30.055523
##########                      Grid_es_energy:           -0.545730
##########           Internal_energy_repulsive:           31.308178

@<TRIPOS>MOLECULE
ZINC001217683559
 38 42 1 0 0
SMALL
USER_CHARGES


@<TRIPOS>ATOM
      1 Br1         0.6261   -0.4154   48.3281 Br      1  ZINC001217683559    0.0100
      2 C2          0.2844    0.6833   46.8274 C.ar    1  ZINC001217683559   -0.1200
      3 C3          1.1599    0.6983   45.7534 C.ar    1  ZINC001217683559   -0.0500
      4 C4          0.8691    1.5196   44.6742 C.ar    1  ZINC001217683559   -0.1500
      5 C5         -0.2769    2.2938   44.7005 C.ar    1  ZINC001217683559    0.1200
      6 N6         -1.0920    2.2608   45.7345 N.ar    1  ZINC001217683559   -0.4400
      7 C7         -0.8544    1.4851   46.7833 C.ar    1  ZINC001217683559    0.2200
      8 C8         -1.8022    1.4813   47.9262 C.2     1  ZINC001217683559    0.2100
      9 N9         -1.7276    0.7263   48.9918 N.2     1  ZINC001217683559   -0.3300
     10 O10        -2.6517    0.9617   49.7411 O.3     1  ZINC001217683559    0.1000
     11 C11        -3.4335    1.9183   49.2162 C.2     1  ZINC001217683559    0.2300
     12 C12        -4.6574    2.4845   49.8197 C.2     1  ZINC001217683559   -0.0600
     13 C13        -5.0366    2.1092   51.0775 C.2     1  ZINC001217683559    0.1800
     14 N14        -6.1586    2.6239   51.6389 N.pl3   1  ZINC001217683559   -0.2900
     15 N15        -6.7825    2.4319   52.8800 N.2     1  ZINC001217683559   -0.3300
     16 C16        -7.8529    3.1904   52.8947 C.2     1  ZINC001217683559    0.2800
     17 C17        -8.8253    3.2975   54.0410 C.3     1  ZINC001217683559   -0.0300
     18 C18        -9.5695    1.9859   54.3421 C.3     1  ZINC001217683559   -0.1200
     19 C19        -9.3966    2.3217   55.8328 C.3     1  ZINC001217683559   -0.1400
     20 C20        -8.1670    3.1494   55.4229 C.3     1  ZINC001217683559   -0.1200
     21 N21        -7.9485    3.8489   51.7480 N.2     1  ZINC001217683559   -0.5300
     22 C22        -6.9301    3.5255   50.9599 C.2     1  ZINC001217683559    0.2900
     23 C23        -6.5616    3.9296   49.6619 C.2     1  ZINC001217683559   -0.1000
     24 C24        -5.4353    3.4204   49.0982 C.2     1  ZINC001217683559   -0.0200
     25 N25        -2.8959    2.2601   48.0597 N.2     1  ZINC001217683559   -0.4300
     26 H26         2.0487    0.0847   45.7568 H       1  ZINC001217683559    0.1600
     27 H27         1.5313    1.5546   43.8217 H       1  ZINC001217683559    0.1500
     28 H28        -0.5062    2.9344   43.8617 H       1  ZINC001217683559    0.1800
     29 H29        -4.4390    1.3977   51.6281 H       1  ZINC001217683559    0.1900
     30 H30        -9.4808    4.1645   53.9604 H       1  ZINC001217683559    0.1200
     31 H31       -10.6083    1.9876   54.0118 H       1  ZINC001217683559    0.0700
     32 H32        -9.0264    1.0940   54.0296 H       1  ZINC001217683559    0.1000
     33 H33       -10.2096    2.9212   56.2425 H       1  ZINC001217683559    0.0800
     34 H34        -9.1547    1.4566   56.4501 H       1  ZINC001217683559    0.0800
     35 H35        -7.2404    2.5755   55.4059 H       1  ZINC001217683559    0.0900
     36 H36        -8.0734    4.0902   55.9652 H       1  ZINC001217683559    0.0700
     37 H37        -7.1673    4.6413   49.1207 H       1  ZINC001217683559    0.1700
     38 H38        -5.1407    3.7212   48.1037 H       1  ZINC001217683559    0.1700
@<TRIPOS>BOND
     1     1     2    1
     2     2     7   ar
     3     2     3   ar
     4     3     4   ar
     5     3    26    1
     6     4     5   ar
     7     4    27    1
     8     5     6   ar
     9     5    28    1
    10     6     7   ar
    11     7     8    1
    12     8    25    1
    13     8     9    2
    14     9    10    1
    15    10    11    1
    16    11    12    1
    17    11    25    2
    18    12    24    1
    19    12    13    2
    20    13    14    1
    21    13    29    1
    22    14    22    1
    23    14    15    1
    24    15    16    2
    25    16    17    1
    26    16    21    1
    27    17    20    1
    28    17    18    1
    29    17    30    1
    30    18    19    1
    31    18    31    1
    32    18    32    1
    33    19    20    1
    34    19    33    1
    35    19    34    1
    36    20    35    1
    37    20    36    1
    38    21    22    2
    39    22    23    1
    40    23    24    2
    41    23    37    1
    42    24    38    1
@<TRIPOS>SUBSTRUCTURE
     1 ZINC001217683559        1 TEMP              0 ****  ****    0 ROOT


##########                                Name:    ZINC000962855438
##########                DOCK_Rotatable_Bonds:                   7
##########                         Heavy_Atoms:                  27
##########                    Molecular_Weight:             370.448
##########                DOCK_Rotatable_Bonds:                   7
##########                       Formal_Charge:           0.0300005
##########                     HBond_Acceptors:                   6
##########                        HBond_Donors:                   2
##########                         Heavy_Atoms:                  27
##########                          Grid_Score:          -30.559280
##########                     Grid_vdw_energy:          -28.976797
##########                      Grid_es_energy:           -1.582483
##########           Internal_energy_repulsive:           15.708169

@<TRIPOS>MOLECULE
ZINC000962855438
 53 56 1 0 0
SMALL
USER_CHARGES


@<TRIPOS>ATOM
      1 C1         -8.9669    2.5128   55.4961 C.3     1  ZINC000962855438   -0.1100
      2 C2         -7.6206    2.8931   54.9358 C.2     1  ZINC000962855438   -0.1700
      3 C3         -7.1940    2.3710   53.6285 C.2     1  ZINC000962855438    0.5600
      4 O4         -7.9019    1.5863   53.0267 O.2     1  ZINC000962855438   -0.5400
      5 N5         -6.0185    2.7622   53.0975 N.am    1  ZINC000962855438   -0.7100
      6 C6         -5.5928    2.2408   51.7963 C.3     1  ZINC000962855438    0.1500
      7 H7         -5.6297    1.1516   51.7832 H       1  ZINC000962855438    0.1200
      8 C8         -4.1778    2.7531   51.4290 C.3     1  ZINC000962855438    0.1000
      9 N9         -4.1273    2.6985   49.9566 N.am    1  ZINC000962855438   -0.6100
     10 C10        -3.0079    2.6017   49.2122 C.2     1  ZINC000962855438    0.5800
     11 O11        -3.0858    2.5635   47.9994 O.2     1  ZINC000962855438   -0.5200
     12 C12        -1.6881    2.5418   49.8689 C.ar    1  ZINC000962855438   -0.1500
     13 C13        -1.3398    3.4958   50.8250 C.ar    1  ZINC000962855438   -0.0600
     14 C14        -0.1072    3.4430   51.4397 C.ar    1  ZINC000962855438   -0.1500
     15 C15         0.7911    2.4420   51.1051 C.ar    1  ZINC000962855438   -0.0500
     16 C16         0.4586    1.4969   50.1605 C.ar    1  ZINC000962855438   -0.1800
     17 C17        -0.7813    1.5192   49.5361 C.ar    1  ZINC000962855438    0.1600
     18 O18        -0.9111    0.4895   48.6592 O.3     1  ZINC000962855438   -0.2800
     19 C19         0.3927   -0.0161   48.3251 C.3     1  ZINC000962855438    0.0700
     20 H20         0.7939    0.4975   47.4514 H       1  ZINC000962855438    0.0900
     21 C21         0.3440   -1.5269   48.0884 C.3     1  ZINC000962855438   -0.1500
     22 C22         1.2208    0.3156   49.5911 C.3     1  ZINC000962855438   -0.1100
     23 C23        -5.5001    2.7665   49.4348 C.3     1  ZINC000962855438    0.0700
     24 C24        -6.4495    2.8401   50.6498 C.3     1  ZINC000962855438    0.0900
     25 H25        -7.3421    2.2384   50.4789 H       1  ZINC000962855438    0.0900
     26 O26        -6.8025    4.1954   50.9341 O.3     1  ZINC000962855438   -0.5600
     27 C27        -6.8183    3.7009   55.6232 C.2     1  ZINC000962855438   -0.0600
     28 C28        -6.8703    4.4238   56.9526 C.3     1  ZINC000962855438   -0.1000
     29 C29        -5.8928    5.4478   56.3549 C.3     1  ZINC000962855438   -0.1400
     30 C30        -5.4429    4.3030   55.4289 C.3     1  ZINC000962855438   -0.1100
     31 H31        -8.8686    1.6070   56.0944 H       1  ZINC000962855438    0.0700
     32 H32        -9.3419    3.3228   56.1219 H       1  ZINC000962855438    0.0700
     33 H33        -9.6638    2.3337   54.6774 H       1  ZINC000962855438    0.0700
     34 H34        -5.4545    3.3889   53.5770 H       1  ZINC000962855438    0.4100
     35 H35        -4.0434    3.7777   51.7755 H       1  ZINC000962855438    0.0800
     36 H36        -3.4156    2.1032   51.8590 H       1  ZINC000962855438    0.0900
     37 H37        -2.0377    4.2782   51.0842 H       1  ZINC000962855438    0.1400
     38 H38         0.1587    4.1817   52.1814 H       1  ZINC000962855438    0.1400
     39 H39         1.7567    2.4033   51.5873 H       1  ZINC000962855438    0.1300
     40 H40        -0.3186   -1.7422   47.2503 H       1  ZINC000962855438    0.0700
     41 H41         1.3460   -1.8916   47.8624 H       1  ZINC000962855438    0.0800
     42 H42        -0.0298   -2.0231   48.9840 H       1  ZINC000962855438    0.0700
     43 H43         2.2380    0.6040   49.3267 H       1  ZINC000962855438    0.1000
     44 H44         1.2235   -0.5243   50.2858 H       1  ZINC000962855438    0.1000
     45 H45        -5.6182    3.6567   48.8170 H       1  ZINC000962855438    0.0800
     46 H46        -5.7183    1.8740   48.8483 H       1  ZINC000962855438    0.0800
     47 H47        -6.0519    4.8050   50.9371 H       1  ZINC000962855438    0.3900
     48 H48        -7.8506    4.8407   57.1839 H       1  ZINC000962855438    0.0900
     49 H49        -6.4491    3.8494   57.7777 H       1  ZINC000962855438    0.1000
     50 H50        -6.3816    6.2726   55.8364 H       1  ZINC000962855438    0.0900
     51 H51        -5.1209    5.7776   57.0503 H       1  ZINC000962855438    0.0800
     52 H52        -4.6358    3.6988   55.8434 H       1  ZINC000962855438    0.1000
     53 H53        -5.2501    4.6214   54.4044 H       1  ZINC000962855438    0.0800
@<TRIPOS>BOND
     1     1     2    1
     2     1    31    1
     3     1    32    1
     4     1    33    1
     5     2     3    1
     6     2    27    2
     7     3     4    2
     8     3     5   am
     9     5     6    1
    10     5    34    1
    11     6     7    1
    12     6    24    1
    13     6     8    1
    14     8     9    1
    15     8    35    1
    16     8    36    1
    17     9    10   am
    18     9    23    1
    19    10    11    2
    20    10    12    1
    21    12    17   ar
    22    12    13   ar
    23    13    14   ar
    24    13    37    1
    25    14    15   ar
    26    14    38    1
    27    15    16   ar
    28    15    39    1
    29    16    22    1
    30    16    17   ar
    31    17    18    1
    32    18    19    1
    33    19    20    1
    34    19    21    1
    35    19    22    1
    36    21    40    1
    37    21    41    1
    38    21    42    1
    39    22    43    1
    40    22    44    1
    41    23    24    1
    42    23    45    1
    43    23    46    1
    44    24    25    1
    45    24    26    1
    46    26    47    1
    47    27    30    1
    48    27    28    1
    49    28    29    1
    50    28    48    1
    51    28    49    1
    52    29    30    1
    53    29    50    1
    54    29    51    1
    55    30    52    1
    56    30    53    1
@<TRIPOS>SUBSTRUCTURE
     1 ZINC000962855438        1 TEMP              0 ****  ****    0 ROOT


##########                                Name:    ZINC000555499135
##########                DOCK_Rotatable_Bonds:                   8
##########                         Heavy_Atoms:                  26
##########                    Molecular_Weight:             377.554
##########                DOCK_Rotatable_Bonds:                   8
##########                       Formal_Charge:           0.0399999
##########                     HBond_Acceptors:                   7
##########                        HBond_Donors:                   0
##########                         Heavy_Atoms:                  26
##########                          Grid_Score:          -30.558212
##########                     Grid_vdw_energy:          -29.838724
##########                      Grid_es_energy:           -0.719488
##########           Internal_energy_repulsive:            9.618100

@<TRIPOS>MOLECULE
ZINC000555499135
 57 59 1 0 0
SMALL
USER_CHARGES


@<TRIPOS>ATOM
      1 C1        -15.9174    0.2057   47.8692 C.3     1  ZINC000555499135   -0.1500
      2 C2        -15.7846    1.0466   49.1404 C.3     1  ZINC000555499135   -0.0500
      3 C3        -14.6059    0.5603   49.9435 C.2     1  ZINC000555499135   -0.2100
      4 C4        -14.4895    0.6034   51.2741 C.2     1  ZINC000555499135    0.0300
      5 N5        -13.3578    0.1144   51.7398 N.2     1  ZINC000555499135   -0.4500
      6 C6        -12.5132   -0.3388   50.8761 C.2     1  ZINC000555499135    0.0400
      7 C7        -11.1706   -0.9347   51.2131 C.3     1  ZINC000555499135    0.1500
      8 N8        -10.6041   -0.2388   52.3762 N.3     1  ZINC000555499135   -0.4500
      9 C9        -10.7658   -1.0380   53.5981 C.3     1  ZINC000555499135    0.0100
     10 C10        -9.2722    0.0800   52.1641 C.2     1  ZINC000555499135    0.3500
     11 N11        -8.3269   -0.7407   51.7708 N.2     1  ZINC000555499135   -0.3100
     12 N12        -7.2115   -0.1090   51.6769 N.2     1  ZINC000555499135   -0.2900
     13 C13        -7.3777    1.1419   52.0019 C.2     1  ZINC000555499135    0.2100
     14 C14        -6.3139    2.2092   52.0189 C.3     1  ZINC000555499135   -0.0300
     15 C15        -6.2173    2.8551   50.6353 C.3     1  ZINC000555499135   -0.0900
     16 C16        -5.7595    4.3076   50.7814 C.3     1  ZINC000555499135   -0.1500
     17 C17        -5.2069    2.0852   49.7826 C.3     1  ZINC000555499135   -0.1500
     18 N18        -8.6974    1.3079   52.3189 N.pl3   1  ZINC000555499135   -0.4600
     19 C19        -9.3559    2.5453   52.7447 C.3     1  ZINC000555499135    0.1100
     20 C20        -9.4007    2.5993   54.2730 C.3     1  ZINC000555499135    0.0700
     21 H21        -9.9959    1.7670   54.6489 H       1  ZINC000555499135    0.0700
     22 C22       -10.0321    3.9207   54.7189 C.3     1  ZINC000555499135   -0.1500
     23 C23       -10.0186    3.9935   56.2489 C.3     1  ZINC000555499135   -0.1200
     24 C24        -8.5768    3.8420   56.7436 C.3     1  ZINC000555499135   -0.1600
     25 C25        -8.0016    2.5235   56.2195 C.3     1  ZINC000555499135    0.0600
     26 O26        -8.0725    2.5080   54.7924 O.3     1  ZINC000555499135   -0.3700
     27 S27       -13.1408   -0.1725   49.2945 S.3     1  ZINC000555499135    0.1200
     28 H28       -15.0088    0.3003   47.2745 H       1  ZINC000555499135    0.0600
     29 H29       -16.0680   -0.8396   48.1390 H       1  ZINC000555499135    0.0600
     30 H30       -16.7700    0.5574   47.2883 H       1  ZINC000555499135    0.0700
     31 H31       -15.6341    2.0918   48.8706 H       1  ZINC000555499135    0.0900
     32 H32       -16.6933    0.9521   49.7351 H       1  ZINC000555499135    0.0800
     33 H33       -15.2596    1.0060   51.9152 H       1  ZINC000555499135    0.1800
     34 H34       -11.2907   -1.9927   51.4458 H       1  ZINC000555499135    0.0800
     35 H35       -10.4997   -0.8238   50.3612 H       1  ZINC000555499135    0.1200
     36 H36       -10.1564   -1.9389   53.5263 H       1  ZINC000555499135    0.0500
     37 H37       -10.4479   -0.4520   54.4604 H       1  ZINC000555499135    0.0800
     38 H38       -11.8134   -1.3163   53.7142 H       1  ZINC000555499135    0.0900
     39 H39        -6.5728    2.9683   52.7570 H       1  ZINC000555499135    0.1000
     40 H40        -5.3546    1.7618   52.2790 H       1  ZINC000555499135    0.1000
     41 H41        -7.1945    2.8288   50.1531 H       1  ZINC000555499135    0.0800
     42 H42        -6.4581    4.8461   51.4218 H       1  ZINC000555499135    0.0500
     43 H43        -4.7651    4.3321   51.2271 H       1  ZINC000555499135    0.0600
     44 H44        -5.7292    4.7795   49.7993 H       1  ZINC000555499135    0.0600
     45 H45        -5.5330    1.0503   49.6785 H       1  ZINC000555499135    0.0600
     46 H46        -5.1380    2.5453   48.7969 H       1  ZINC000555499135    0.0600
     47 H47        -4.2297    2.1114   50.2649 H       1  ZINC000555499135    0.0600
     48 H48        -8.7980    3.4022   52.3671 H       1  ZINC000555499135    0.1100
     49 H49       -10.3717    2.5706   52.3503 H       1  ZINC000555499135    0.1200
     50 H50        -9.4606    4.7538   54.3096 H       1  ZINC000555499135    0.0800
     51 H51       -11.0603    3.9723   54.3609 H       1  ZINC000555499135    0.0800
     52 H52       -10.4156    4.9560   56.5718 H       1  ZINC000555499135    0.0700
     53 H53       -10.6307    3.1895   56.6577 H       1  ZINC000555499135    0.0600
     54 H54        -7.9760    4.6734   56.3751 H       1  ZINC000555499135    0.0700
     55 H55        -8.5643    3.8371   57.8335 H       1  ZINC000555499135    0.0800
     56 H56        -6.9619    2.4305   56.5329 H       1  ZINC000555499135    0.1000
     57 H57        -8.5785    1.6903   56.6210 H       1  ZINC000555499135    0.0500
@<TRIPOS>BOND
     1     1     2    1
     2     1    28    1
     3     1    29    1
     4     1    30    1
     5     2     3    1
     6     2    31    1
     7     2    32    1
     8     3    27    1
     9     3     4    2
    10     4     5    1
    11     4    33    1
    12     5     6    2
    13     6     7    1
    14     6    27    1
    15     7     8    1
    16     7    34    1
    17     7    35    1
    18     8     9    1
    19     8    10    1
    20     9    36    1
    21     9    37    1
    22     9    38    1
    23    10    18    1
    24    10    11    2
    25    11    12    1
    26    12    13    2
    27    13    14    1
    28    13    18    1
    29    14    15    1
    30    14    39    1
    31    14    40    1
    32    15    16    1
    33    15    17    1
    34    15    41    1
    35    16    42    1
    36    16    43    1
    37    16    44    1
    38    17    45    1
    39    17    46    1
    40    17    47    1
    41    18    19    1
    42    19    20    1
    43    19    48    1
    44    19    49    1
    45    20    21    1
    46    20    26    1
    47    20    22    1
    48    22    23    1
    49    22    50    1
    50    22    51    1
    51    23    24    1
    52    23    52    1
    53    23    53    1
    54    24    25    1
    55    24    54    1
    56    24    55    1
    57    25    26    1
    58    25    56    1
    59    25    57    1
@<TRIPOS>SUBSTRUCTURE
     1 ZINC000555499135        1 TEMP              0 ****  ****    0 ROOT


##########                                Name:    ZINC000459459628
##########                DOCK_Rotatable_Bonds:                   8
##########                         Heavy_Atoms:                  27
##########                    Molecular_Weight:             377.366
##########                DOCK_Rotatable_Bonds:                   8
##########                       Formal_Charge:         -0.00999984
##########                     HBond_Acceptors:                   8
##########                        HBond_Donors:                   1
##########                         Heavy_Atoms:                  27
##########                          Grid_Score:          -30.557709
##########                     Grid_vdw_energy:          -29.752499
##########                      Grid_es_energy:           -0.805210
##########           Internal_energy_repulsive:           14.983415

@<TRIPOS>MOLECULE
ZINC000459459628
 45 46 1 0 0
SMALL
USER_CHARGES


@<TRIPOS>ATOM
      1 C1         -5.7289    3.7836   50.2222 C.3     1  ZINC000459459628   -0.1600
      2 C2         -4.8496    2.6105   50.6602 C.3     1  ZINC000459459628    0.1600
      3 H3         -5.0228    1.7604   50.0002 H       1  ZINC000459459628    0.1100
      4 C4         -5.1993    2.2199   52.0976 C.3     1  ZINC000459459628   -0.0900
      5 C5         -6.5194    1.4932   52.1136 C.ar    1  ZINC000459459628   -0.0500
      6 C6         -6.6051    0.2051   51.6194 C.ar    1  ZINC000459459628   -0.1200
      7 C7         -7.8156   -0.4628   51.6334 C.ar    1  ZINC000459459628   -0.0900
      8 C8         -8.9413    0.1568   52.1416 C.ar    1  ZINC000459459628   -0.1600
      9 C9         -8.8566    1.4469   52.6375 C.ar    1  ZINC000459459628    0.1000
     10 F10        -9.9566    2.0537   53.1345 F       1  ZINC000459459628   -0.1400
     11 C11        -7.6429    2.1129   52.6277 C.ar    1  ZINC000459459628   -0.1500
     12 N12        -3.4401    3.0039   50.5901 N.am    1  ZINC000459459628   -0.6200
     13 C13        -2.7668    3.5311   51.7797 C.3     1  ZINC000459459628    0.0700
     14 C14        -2.7630    2.8807   49.4314 C.2     1  ZINC000459459628    0.7100
     15 O15        -3.3213    2.4419   48.4445 O.2     1  ZINC000459459628   -0.5700
     16 N16        -1.4667    3.2441   49.3666 N.am    1  ZINC000459459628   -0.6800
     17 C17        -0.7623    3.1161   48.1613 C.ar    1  ZINC000459459628    0.1500
     18 C18        -0.3220    4.2443   47.4942 C.ar    1  ZINC000459459628   -0.0400
     19 C19         0.3803    4.1122   46.2932 C.ar    1  ZINC000459459628   -0.0300
     20 C20         0.8389    5.2773   45.5983 C.1     1  ZINC000459459628    0.2600
     21 N21         1.2028    6.2015   45.0471 N.1     1  ZINC000459459628   -0.4100
     22 C22         0.6342    2.8411   45.7721 C.ar    1  ZINC000459459628   -0.0500
     23 C23         0.1921    1.7200   46.4419 C.ar    1  ZINC000459459628   -0.1700
     24 C24        -0.5002    1.8496   47.6373 C.ar    1  ZINC000459459628    0.1100
     25 O25        -0.9334    0.7418   48.2931 O.3     1  ZINC000459459628   -0.3200
     26 C26        -0.0441    0.1663   49.2522 C.3     1  ZINC000459459628    0.4100
     27 F27        -0.3746   -1.1791   49.4462 F       1  ZINC000459459628   -0.1900
     28 F28         1.2710    0.2606   48.7842 F       1  ZINC000459459628   -0.1900
     29 H29        -5.5556    4.6337   50.8822 H       1  ZINC000459459628    0.0600
     30 H30        -5.4796    4.0619   49.1983 H       1  ZINC000459459628    0.0600
     31 H31        -6.7775    3.4910   50.2743 H       1  ZINC000459459628    0.0700
     32 H32        -4.4213    1.5689   52.4966 H       1  ZINC000459459628    0.0800
     33 H33        -5.2715    3.1181   52.7108 H       1  ZINC000459459628    0.0900
     34 H34        -5.7258   -0.2797   51.2217 H       1  ZINC000459459628    0.1300
     35 H35        -7.8813   -1.4690   51.2467 H       1  ZINC000459459628    0.1300
     36 H36        -9.8869   -0.3649   52.1518 H       1  ZINC000459459628    0.1300
     37 H37        -7.5756    3.1189   53.0145 H       1  ZINC000459459628    0.1300
     38 H38        -2.3208    2.7087   52.3390 H       1  ZINC000459459628    0.0600
     39 H39        -1.9868    4.2293   51.4762 H       1  ZINC000459459628    0.0700
     40 H40        -3.4919    4.0473   52.4088 H       1  ZINC000459459628    0.0800
     41 H41        -1.0212    3.5943   50.1539 H       1  ZINC000459459628    0.4100
     42 H42        -0.5207    5.2253   47.9001 H       1  ZINC000459459628    0.1600
     43 H43         1.1767    2.7366   44.8442 H       1  ZINC000459459628    0.1400
     44 H44         0.3888    0.7382   46.0372 H       1  ZINC000459459628    0.1500
     45 H45        -0.1327    0.7022   50.1972 H       1  ZINC000459459628    0.1900
@<TRIPOS>BOND
     1     1     2    1
     2     1    29    1
     3     1    30    1
     4     1    31    1
     5     2     3    1
     6     2     4    1
     7     2    12    1
     8     4     5    1
     9     4    32    1
    10     4    33    1
    11     5    11   ar
    12     5     6   ar
    13     6     7   ar
    14     6    34    1
    15     7     8   ar
    16     7    35    1
    17     8     9   ar
    18     8    36    1
    19     9    10    1
    20     9    11   ar
    21    11    37    1
    22    12    13    1
    23    12    14   am
    24    13    38    1
    25    13    39    1
    26    13    40    1
    27    14    15    2
    28    14    16   am
    29    16    17    1
    30    16    41    1
    31    17    24   ar
    32    17    18   ar
    33    18    19   ar
    34    18    42    1
    35    19    20    1
    36    19    22   ar
    37    20    21    3
    38    22    23   ar
    39    22    43    1
    40    23    24   ar
    41    23    44    1
    42    24    25    1
    43    25    26    1
    44    26    27    1
    45    26    28    1
    46    26    45    1
@<TRIPOS>SUBSTRUCTURE
     1 ZINC000459459628        1 TEMP              0 ****  ****    0 ROOT


##########                                Name:    ZINC000058043838
##########                DOCK_Rotatable_Bonds:                   8
##########                         Heavy_Atoms:                  29
##########                    Molecular_Weight:             412.469
##########                DOCK_Rotatable_Bonds:                   8
##########                       Formal_Charge:           0.0200001
##########                     HBond_Acceptors:                   9
##########                        HBond_Donors:                   0
##########                         Heavy_Atoms:                  29
##########                          Grid_Score:          -30.543594
##########                     Grid_vdw_energy:          -28.913860
##########                      Grid_es_energy:           -1.629735
##########           Internal_energy_repulsive:           12.701494

@<TRIPOS>MOLECULE
ZINC000058043838
 49 51 1 0 0
SMALL
USER_CHARGES


@<TRIPOS>ATOM
      1 C1         -0.9464   -2.1605   49.0003 C.3     1  ZINC000058043838    0.0300
      2 O2         -0.7234   -1.3329   47.8568 O.3     1  ZINC000058043838   -0.3800
      3 C3         -1.0058    0.0506   48.0766 C.3     1  ZINC000058043838    0.0300
      4 C4         -0.7591    0.8329   46.7852 C.3     1  ZINC000058043838    0.1000
      5 N5         -0.7402    2.2679   47.0796 N.am    1  ZINC000058043838   -0.5200
      6 C6         -0.2920    3.1397   46.1545 C.2     1  ZINC000058043838    0.5100
      7 O7         -0.2777    4.3278   46.3976 O.2     1  ZINC000058043838   -0.4500
      8 C8          0.1912    2.6382   44.8181 C.3     1  ZINC000058043838   -0.0900
      9 C9          1.0444    3.6941   44.1639 C.ar    1  ZINC000058043838   -0.1400
     10 C10         0.4698    4.6495   43.3399 C.ar    1  ZINC000058043838   -0.0500
     11 C11         1.2937    5.6021   42.7595 C.ar    1  ZINC000058043838   -0.1700
     12 C12         2.6503    5.5678   43.0201 C.ar    1  ZINC000058043838    0.1300
     13 C13         3.5550    6.5984   42.3952 C.3     1  ZINC000058043838   -0.1100
     14 N14         3.1625    4.6438   43.8095 N.ar    1  ZINC000058043838   -0.4800
     15 C15         2.4089    3.7258   44.3823 C.ar    1  ZINC000058043838    0.1200
     16 C16        -1.1842    2.7302   48.3123 C.2     1  ZINC000058043838    0.3100
     17 N17        -2.4040    2.6556   48.7456 N.2     1  ZINC000058043838   -0.4700
     18 C18        -2.6457    3.1499   49.9517 C.2     1  ZINC000058043838    0.1100
     19 C19        -3.9973    3.1259   50.5619 C.ar    1  ZINC000058043838    0.0400
     20 C20        -5.1311    3.1833   49.7532 C.ar    1  ZINC000058043838   -0.0800
     21 C21        -6.3862    3.1601   50.3266 C.ar    1  ZINC000058043838   -0.0500
     22 C22        -6.5203    3.0799   51.7011 C.ar    1  ZINC000058043838   -0.0400
     23 N23        -7.8693    3.0554   52.3102 N.pl3   1  ZINC000058043838    0.0300
     24 O24        -8.8585    3.1057   51.6014 O.2     1  ZINC000058043838   -0.1600
     25 O25        -7.9899    2.9849   53.5201 O.2     1  ZINC000058043838   -0.1600
     26 C26        -5.3985    3.0222   52.5086 C.ar    1  ZINC000058043838   -0.0500
     27 C27        -4.1385    3.0399   51.9459 C.ar    1  ZINC000058043838   -0.1100
     28 C28        -1.5806    3.6745   50.5838 C.2     1  ZINC000058043838   -0.2600
     29 S29        -0.1765    3.5021   49.5331 S.3     1  ZINC000058043838    0.1500
     30 H30        -0.3085   -1.8282   49.8192 H       1  ZINC000058043838    0.0500
     31 H31        -1.9915   -2.0895   49.3019 H       1  ZINC000058043838    0.0400
     32 H32        -0.7094   -3.1950   48.7518 H       1  ZINC000058043838    0.0900
     33 H33        -2.0471    0.1655   48.3777 H       1  ZINC000058043838    0.0600
     34 H34        -0.3557    0.4336   48.8633 H       1  ZINC000058043838    0.0800
     35 H35         0.1992    0.5369   46.3585 H       1  ZINC000058043838    0.1200
     36 H36        -1.5558    0.6187   46.0728 H       1  ZINC000058043838    0.1000
     37 H37         0.7804    1.7324   44.9614 H       1  ZINC000058043838    0.1100
     38 H38        -0.6655    2.4174   44.1815 H       1  ZINC000058043838    0.1100
     39 H39        -0.5940    4.6516   43.1541 H       1  ZINC000058043838    0.1300
     40 H40         0.8803    6.3612   42.1119 H       1  ZINC000058043838    0.1400
     41 H41         3.6329    7.4619   43.0559 H       1  ZINC000058043838    0.0800
     42 H42         4.5445    6.1680   42.2417 H       1  ZINC000058043838    0.0800
     43 H43         3.1419    6.9109   41.4361 H       1  ZINC000058043838    0.0800
     44 H44         2.8643    2.9850   45.0228 H       1  ZINC000058043838    0.1500
     45 H45        -5.0277    3.2462   48.6800 H       1  ZINC000058043838    0.1600
     46 H46        -7.2654    3.2048   49.7010 H       1  ZINC000058043838    0.1600
     47 H47        -5.5091    2.9598   53.5811 H       1  ZINC000058043838    0.1600
     48 H48        -3.2634    2.9944   52.5773 H       1  ZINC000058043838    0.1500
     49 H49        -1.5846    4.1210   51.5672 H       1  ZINC000058043838    0.1800
@<TRIPOS>BOND
     1     1     2    1
     2     1    30    1
     3     1    31    1
     4     1    32    1
     5     2     3    1
     6     3     4    1
     7     3    33    1
     8     3    34    1
     9     4     5    1
    10     4    35    1
    11     4    36    1
    12     5     6   am
    13     5    16    1
    14     6     7    2
    15     6     8    1
    16     8     9    1
    17     8    37    1
    18     8    38    1
    19     9    15   ar
    20     9    10   ar
    21    10    11   ar
    22    10    39    1
    23    11    12   ar
    24    11    40    1
    25    12    13    1
    26    12    14   ar
    27    13    41    1
    28    13    42    1
    29    13    43    1
    30    14    15   ar
    31    15    44    1
    32    16    29    1
    33    16    17    2
    34    17    18    1
    35    18    19    1
    36    18    28    2
    37    19    27   ar
    38    19    20   ar
    39    20    21   ar
    40    20    45    1
    41    21    22   ar
    42    21    46    1
    43    22    23    1
    44    22    26   ar
    45    23    24    2
    46    23    25    2
    47    26    27   ar
    48    26    47    1
    49    27    48    1
    50    28    29    1
    51    28    49    1
@<TRIPOS>SUBSTRUCTURE
     1 ZINC000058043838        1 TEMP              0 ****  ****    0 ROOT


##########                                Name:    ZINC000535362552
##########                DOCK_Rotatable_Bonds:                   5
##########                         Heavy_Atoms:                  26
##########                    Molecular_Weight:             416.228
##########                DOCK_Rotatable_Bonds:                   5
##########                       Formal_Charge:         -0.00999981
##########                     HBond_Acceptors:                   6
##########                        HBond_Donors:                   1
##########                         Heavy_Atoms:                  26
##########                          Grid_Score:          -30.538940
##########                     Grid_vdw_energy:          -28.635574
##########                      Grid_es_energy:           -1.903366
##########           Internal_energy_repulsive:           25.710587

@<TRIPOS>MOLECULE
ZINC000535362552
 40 43 1 0 0
SMALL
USER_CHARGES


@<TRIPOS>ATOM
      1 C1        -11.0527   -0.4420   52.4878 C.3     1  ZINC000535362552    0.0300
      2 O2        -11.5224    0.5134   53.4751 O.3     1  ZINC000535362552   -0.3400
      3 C3        -10.6480    1.4580   53.8776 C.2     1  ZINC000535362552    0.5500
      4 O4        -10.9879    2.2928   54.6936 O.2     1  ZINC000535362552   -0.4800
      5 C5         -9.2859    1.4783   53.3305 C.2     1  ZINC000535362552   -0.0100
      6 C6         -8.3166    2.3651   53.6782 C.2     1  ZINC000535362552   -0.0900
      7 C7         -7.1385    2.0074   52.8892 C.ar    1  ZINC000535362552   -0.1300
      8 C8         -5.8439    2.5218   52.7879 C.ar    1  ZINC000535362552   -0.0600
      9 C9         -4.9431    1.9342   51.9196 C.ar    1  ZINC000535362552    0.1200
     10 N10        -3.6422    2.4433   51.8120 N.am    1  ZINC000535362552   -0.6700
     11 C11        -3.1620    2.8165   50.6092 C.2     1  ZINC000535362552    0.5200
     12 O12        -3.8560    2.7116   49.6200 O.2     1  ZINC000535362552   -0.5000
     13 C13        -1.7629    3.3641   50.4935 C.3     1  ZINC000535362552   -0.1000
     14 H14        -1.7304    4.2003   49.7949 H       1  ZINC000535362552    0.1300
     15 C15        -1.2155    3.7802   51.8793 C.3     1  ZINC000535362552    0.0600
     16 O16         0.1738    3.4202   51.7941 O.3     1  ZINC000535362552   -0.2900
     17 C17         0.3162    2.3850   50.9213 C.ar    1  ZINC000535362552    0.1300
     18 C18         1.3641    1.4804   50.7725 C.ar    1  ZINC000535362552   -0.1300
     19 C19         1.3043    0.5007   49.8028 C.ar    1  ZINC000535362552   -0.0500
     20 C20         0.2038    0.4083   48.9698 C.ar    1  ZINC000535362552   -0.1200
     21 Br21        0.1306   -0.9334   47.6393 Br      1  ZINC000535362552   -0.0400
     22 C22        -0.8441    1.3019   49.1143 C.ar    1  ZINC000535362552   -0.0100
     23 C23        -0.7878    2.2774   50.0837 C.ar    1  ZINC000535362552   -0.1600
     24 C24        -5.3258    0.8360   51.1511 C.ar    1  ZINC000535362552   -0.0900
     25 C25        -6.6003    0.3229   51.2444 C.ar    1  ZINC000535362552   -0.0900
     26 C26        -7.5216    0.8983   52.1116 C.ar    1  ZINC000535362552    0.0700
     27 O27        -8.8055    0.6156   52.4108 O.3     1  ZINC000535362552   -0.1700
     28 H28       -10.1970   -0.9863   52.8875 H       1  ZINC000535362552    0.0700
     29 H29       -11.8524   -1.1443   52.2526 H       1  ZINC000535362552    0.1100
     30 H30       -10.7560    0.0873   51.5824 H       1  ZINC000535362552    0.0700
     31 H31        -8.3998    3.1713   54.3920 H       1  ZINC000535362552    0.1800
     32 H32        -5.5489    3.3729   53.3837 H       1  ZINC000535362552    0.1400
     33 H33        -3.0873    2.5273   52.6032 H       1  ZINC000535362552    0.4100
     34 H34        -1.3276    4.8535   52.0326 H       1  ZINC000535362552    0.1200
     35 H35        -1.7111    3.2219   52.6737 H       1  ZINC000535362552    0.0900
     36 H36         2.2270    1.5456   51.4187 H       1  ZINC000535362552    0.1400
     37 H37         2.1209   -0.1976   49.6934 H       1  ZINC000535362552    0.1400
     38 H38        -1.7053    1.2338   48.4662 H       1  ZINC000535362552    0.1400
     39 H39        -4.6154    0.3832   50.4752 H       1  ZINC000535362552    0.1500
     40 H40        -6.8845   -0.5279   50.6429 H       1  ZINC000535362552    0.1500
@<TRIPOS>BOND
     1     1     2    1
     2     1    28    1
     3     1    29    1
     4     1    30    1
     5     2     3    1
     6     3     4    2
     7     3     5    1
     8     5    27    1
     9     5     6    2
    10     6     7    1
    11     6    31    1
    12     7    26   ar
    13     7     8   ar
    14     8     9   ar
    15     8    32    1
    16     9    10    1
    17     9    24   ar
    18    10    11   am
    19    10    33    1
    20    11    12    2
    21    11    13    1
    22    13    14    1
    23    13    23    1
    24    13    15    1
    25    15    16    1
    26    15    34    1
    27    15    35    1
    28    16    17    1
    29    17    23   ar
    30    17    18   ar
    31    18    19   ar
    32    18    36    1
    33    19    20   ar
    34    19    37    1
    35    20    21    1
    36    20    22   ar
    37    22    23   ar
    38    22    38    1
    39    24    25   ar
    40    24    39    1
    41    25    26   ar
    42    25    40    1
    43    26    27    1
@<TRIPOS>SUBSTRUCTURE
     1 ZINC000535362552        1 TEMP              0 ****  ****    0 ROOT


##########                                Name:    ZINC001342153661
##########                DOCK_Rotatable_Bonds:                   8
##########                         Heavy_Atoms:                  29
##########                    Molecular_Weight:             395.548
##########                DOCK_Rotatable_Bonds:                   8
##########                       Formal_Charge:          -0.0400005
##########                     HBond_Acceptors:                   6
##########                        HBond_Donors:                   1
##########                         Heavy_Atoms:                  29
##########                          Grid_Score:          -30.529774
##########                     Grid_vdw_energy:          -29.250040
##########                      Grid_es_energy:           -1.279735
##########           Internal_energy_repulsive:           15.861073

@<TRIPOS>MOLECULE
ZINC001342153661
 62 65 1 0 0
SMALL
USER_CHARGES


@<TRIPOS>ATOM
      1 C1         -5.3671    3.3491   48.9676 C.2     1  ZINC001342153661   -0.1400
      2 C2         -5.3757    2.5863   50.0327 C.2     1  ZINC001342153661   -0.1600
      3 C3         -6.6105    2.5073   50.8929 C.3     1  ZINC001342153661   -0.1200
      4 C4         -4.1506    1.7883   50.3977 C.3     1  ZINC001342153661    0.1500
      5 N5         -3.0280    2.6985   50.6368 N.pl3   1  ZINC001342153661   -0.4700
      6 C6         -2.9620    3.7025   51.5628 C.2     1  ZINC001342153661    0.1800
      7 C7         -4.0413    4.0870   52.5417 C.3     1  ZINC001342153661   -0.0600
      8 C8         -3.4751    5.0755   53.5630 C.3     1  ZINC001342153661    0.1600
      9 H9         -2.6104    4.6322   54.0569 H       1  ZINC001342153661    0.1000
     10 O10        -3.0790    6.2754   52.8956 O.3     1  ZINC001342153661   -0.5400
     11 C11        -4.5303    5.3967   54.5899 C.ar    1  ZINC001342153661   -0.1700
     12 C12        -4.6402    4.6374   55.7444 C.ar    1  ZINC001342153661   -0.0600
     13 C13        -5.6257    4.9698   56.6616 C.ar    1  ZINC001342153661   -0.1700
     14 C14        -6.4596    6.0392   56.3960 C.ar    1  ZINC001342153661    0.1000
     15 N15        -6.3259    6.7396   55.2866 N.ar    1  ZINC001342153661   -0.4800
     16 C16        -5.3970    6.4556   54.3950 C.ar    1  ZINC001342153661    0.1100
     17 N17        -1.7927    4.2645   51.4424 N.2     1  ZINC001342153661   -0.2700
     18 N18        -1.1206    3.6884   50.5106 N.2     1  ZINC001342153661   -0.3200
     19 C19        -1.8290    2.7167   49.9855 C.2     1  ZINC001342153661    0.3600
     20 N20        -1.4370    1.8736   48.9579 N.3     1  ZINC001342153661   -0.4500
     21 C21        -0.9299    0.6007   49.4860 C.3     1  ZINC001342153661    0.0500
     22 C22        -0.6440   -0.3564   48.3265 C.3     1  ZINC001342153661   -0.1200
     23 C23         0.3893    0.2772   47.3909 C.3     1  ZINC001342153661   -0.1200
     24 C24        -0.1427    1.6240   46.8932 C.3     1  ZINC001342153661   -0.0800
     25 H25        -1.0561    1.4652   46.3200 H       1  ZINC001342153661    0.0800
     26 C26         0.9086    2.2914   46.0042 C.3     1  ZINC001342153661   -0.0800
     27 C27         1.0761    1.5060   44.6798 C.3     1  ZINC001342153661   -0.1200
     28 C28         1.6470    2.5769   43.7172 C.3     1  ZINC001342153661   -0.1300
     29 C29         0.8994    3.8698   44.1035 C.3     1  ZINC001342153661   -0.1300
     30 C30         0.4299    3.6883   45.5577 C.3     1  ZINC001342153661   -0.1200
     31 C31        -0.4431    2.5237   48.0942 C.3     1  ZINC001342153661    0.0800
     32 H32        -6.2451    3.9210   48.7060 H       1  ZINC001342153661    0.1000
     33 H33        -4.4807    3.4091   48.3536 H       1  ZINC001342153661    0.1100
     34 H34        -7.2901    1.7592   50.4852 H       1  ZINC001342153661    0.0700
     35 H35        -6.3288    2.2275   51.9081 H       1  ZINC001342153661    0.0600
     36 H36        -7.1057    3.4782   50.9080 H       1  ZINC001342153661    0.0700
     37 H37        -4.3489    1.2109   51.3008 H       1  ZINC001342153661    0.1000
     38 H38        -3.9016    1.1109   49.5809 H       1  ZINC001342153661    0.1000
     39 H39        -4.8688    4.5522   52.0059 H       1  ZINC001342153661    0.1100
     40 H40        -4.3981    3.1957   53.0579 H       1  ZINC001342153661    0.1000
     41 H41        -2.4345    6.1375   52.1880 H       1  ZINC001342153661    0.3800
     42 H42        -3.9743    3.8064   55.9252 H       1  ZINC001342153661    0.1300
     43 H43        -5.7404    4.3998   57.5717 H       1  ZINC001342153661    0.1400
     44 H44        -7.2298    6.3042   57.1052 H       1  ZINC001342153661    0.1600
     45 H45        -5.3181    7.0519   53.4980 H       1  ZINC001342153661    0.1500
     46 H46        -0.0109    0.7794   50.0444 H       1  ZINC001342153661    0.0500
     47 H47        -1.6759    0.1586   50.1464 H       1  ZINC001342153661    0.0700
     48 H48        -0.2530   -1.2956   48.7179 H       1  ZINC001342153661    0.0800
     49 H49        -1.5654   -0.5465   47.7759 H       1  ZINC001342153661    0.0700
     50 H50         1.3233    0.4317   47.9310 H       1  ZINC001342153661    0.0600
     51 H51         0.5636   -0.3822   46.5408 H       1  ZINC001342153661    0.0700
     52 H52         1.8606    2.3644   46.5299 H       1  ZINC001342153661    0.0800
     53 H53         1.7810    0.6840   44.8047 H       1  ZINC001342153661    0.0700
     54 H54         0.1134    1.1400   44.3232 H       1  ZINC001342153661    0.0700
     55 H55         2.7195    2.6957   43.8715 H       1  ZINC001342153661    0.0600
     56 H56         1.4370    2.3097   42.6816 H       1  ZINC001342153661    0.0600
     57 H57         1.5713    4.7251   44.0322 H       1  ZINC001342153661    0.0600
     58 H58         0.0400    4.0139   43.4489 H       1  ZINC001342153661    0.0600
     59 H59        -0.6575    3.7444   45.6087 H       1  ZINC001342153661    0.0600
     60 H60         0.8739    4.4556   46.1919 H       1  ZINC001342153661    0.0600
     61 H61        -0.8355    3.4783   47.7437 H       1  ZINC001342153661    0.0900
     62 H62         0.4735    2.6934   48.6591 H       1  ZINC001342153661    0.0500
@<TRIPOS>BOND
     1     1     2    2
     2     1    32    1
     3     1    33    1
     4     2     3    1
     5     2     4    1
     6     3    34    1
     7     3    35    1
     8     3    36    1
     9     4     5    1
    10     4    37    1
    11     4    38    1
    12     5    19    1
    13     5     6    1
    14     6     7    1
    15     6    17    2
    16     7     8    1
    17     7    39    1
    18     7    40    1
    19     8     9    1
    20     8    10    1
    21     8    11    1
    22    10    41    1
    23    11    16   ar
    24    11    12   ar
    25    12    13   ar
    26    12    42    1
    27    13    14   ar
    28    13    43    1
    29    14    15   ar
    30    14    44    1
    31    15    16   ar
    32    16    45    1
    33    17    18    1
    34    18    19    2
    35    19    20    1
    36    20    31    1
    37    20    21    1
    38    21    22    1
    39    21    46    1
    40    21    47    1
    41    22    23    1
    42    22    48    1
    43    22    49    1
    44    23    24    1
    45    23    50    1
    46    23    51    1
    47    24    25    1
    48    24    26    1
    49    24    31    1
    50    26    30    1
    51    26    27    1
    52    26    52    1
    53    27    28    1
    54    27    53    1
    55    27    54    1
    56    28    29    1
    57    28    55    1
    58    28    56    1
    59    29    30    1
    60    29    57    1
    61    29    58    1
    62    30    59    1
    63    30    60    1
    64    31    61    1
    65    31    62    1
@<TRIPOS>SUBSTRUCTURE
     1 ZINC001342153661        1 TEMP              0 ****  ****    0 ROOT


##########                                Name:    ZINC001058772245
##########                DOCK_Rotatable_Bonds:                  11
##########                         Heavy_Atoms:                  22
##########                    Molecular_Weight:             335.375
##########                DOCK_Rotatable_Bonds:                  11
##########                       Formal_Charge:          0.00999964
##########                     HBond_Acceptors:                   9
##########                        HBond_Donors:                   2
##########                         Heavy_Atoms:                  22
##########                          Grid_Score:          -30.528240
##########                     Grid_vdw_energy:          -28.923357
##########                      Grid_es_energy:           -1.604883
##########           Internal_energy_repulsive:           66.657326

@<TRIPOS>MOLECULE
ZINC001058772245
 41 41 1 0 0
SMALL
USER_CHARGES


@<TRIPOS>ATOM
      1 C1         -8.9892    3.4234   51.5106 C.3     1  ZINC001058772245   -0.1700
      2 C2         -7.9915    2.8040   52.4913 C.3     1  ZINC001058772245   -0.1400
      3 C3         -8.7400    1.9171   53.4882 C.3     1  ZINC001058772245   -0.1500
      4 C4         -6.9908    1.9720   51.7315 C.2     1  ZINC001058772245    0.5300
      5 O5         -6.9618    0.7692   51.8841 O.2     1  ZINC001058772245   -0.5200
      6 N6         -6.1281    2.5645   50.8822 N.am    1  ZINC001058772245   -0.5900
      7 C7         -6.1632    4.0174   50.6978 C.3     1  ZINC001058772245    0.0800
      8 C8         -6.3455    4.3388   49.2131 C.3     1  ZINC001058772245    0.0400
      9 O9         -6.5902    5.7378   49.0551 O.3     1  ZINC001058772245   -0.5700
     10 C10        -5.1553    1.7557   50.1436 C.3     1  ZINC001058772245    0.1100
     11 C11        -3.7414    2.2562   50.4459 C.3     1  ZINC001058772245    0.1000
     12 N12        -2.7637    1.2742   49.9706 N.am    1  ZINC001058772245   -0.7100
     13 C13        -2.2207    1.4032   48.7439 C.2     1  ZINC001058772245    0.6000
     14 O14        -2.5413    2.3358   48.0318 O.2     1  ZINC001058772245   -0.5300
     15 C15        -1.2392    0.4151   48.2655 C.2     1  ZINC001058772245    0.0000
     16 C16        -1.1724   -0.8496   48.7391 C.2     1  ZINC001058772245   -0.2200
     17 S17         0.0900   -1.6743   47.9338 S.3     1  ZINC001058772245    0.2300
     18 C18         0.4556   -0.2841   47.0119 C.2     1  ZINC001058772245    0.0000
     19 N19        -0.3354    0.6828   47.3193 N.2     1  ZINC001058772245   -0.4400
     20 C20        -7.2613    3.9163   53.2466 C.3     1  ZINC001058772245    0.2900
     21 F21        -7.8918    5.1403   52.9983 F       1  ZINC001058772245   -0.1900
     22 F22        -7.2917    3.6460   54.6189 F       1  ZINC001058772245   -0.2000
     23 H23        -9.5230    4.2374   52.0009 H       1  ZINC001058772245    0.0800
     24 H24        -8.4538    3.8103   50.6435 H       1  ZINC001058772245    0.0700
     25 H25        -9.7015    2.6638   51.1885 H       1  ZINC001058772245    0.0900
     26 H26        -9.0362    0.9895   52.9983 H       1  ZINC001058772245    0.0800
     27 H27        -8.0892    1.6902   54.3326 H       1  ZINC001058772245    0.0700
     28 H28        -9.6280    2.4396   53.8439 H       1  ZINC001058772245    0.0900
     29 H29        -6.9949    4.4356   51.2649 H       1  ZINC001058772245    0.0900
     30 H30        -5.2279    4.4513   51.0514 H       1  ZINC001058772245    0.1200
     31 H31        -5.4422    4.0641   48.6683 H       1  ZINC001058772245    0.0600
     32 H32        -7.1920    3.7753   48.8207 H       1  ZINC001058772245    0.0700
     33 H33        -6.7149    6.0139   48.1367 H       1  ZINC001058772245    0.3800
     34 H34        -5.2443    0.7128   50.4477 H       1  ZINC001058772245    0.1000
     35 H35        -5.3498    1.8402   49.0744 H       1  ZINC001058772245    0.0900
     36 H36        -3.5767    3.2073   49.9396 H       1  ZINC001058772245    0.0700
     37 H37        -3.6264    2.3923   51.5213 H       1  ZINC001058772245    0.0700
     38 H38        -2.5071    0.5311   50.5389 H       1  ZINC001058772245    0.4100
     39 H39        -1.8118   -1.2699   49.5012 H       1  ZINC001058772245    0.1900
     40 H40         1.2395   -0.2258   46.2714 H       1  ZINC001058772245    0.2100
     41 H41        -6.2261    3.9658   52.9089 H       1  ZINC001058772245    0.1200
@<TRIPOS>BOND
     1     1     2    1
     2     1    23    1
     3     1    24    1
     4     1    25    1
     5     2     3    1
     6     2     4    1
     7     2    20    1
     8     3    26    1
     9     3    27    1
    10     3    28    1
    11     4     5    2
    12     4     6   am
    13     6     7    1
    14     6    10    1
    15     7     8    1
    16     7    29    1
    17     7    30    1
    18     8     9    1
    19     8    31    1
    20     8    32    1
    21     9    33    1
    22    10    11    1
    23    10    34    1
    24    10    35    1
    25    11    12    1
    26    11    36    1
    27    11    37    1
    28    12    13   am
    29    12    38    1
    30    13    14    2
    31    13    15    1
    32    15    19    1
    33    15    16    2
    34    16    17    1
    35    16    39    1
    36    17    18    1
    37    18    19    2
    38    18    40    1
    39    20    21    1
    40    20    22    1
    41    20    41    1
@<TRIPOS>SUBSTRUCTURE
     1 ZINC001058772245        1 TEMP              0 ****  ****    0 ROOT


##########                                Name:    ZINC000740930783
##########                DOCK_Rotatable_Bonds:                  11
##########                         Heavy_Atoms:                  27
##########                    Molecular_Weight:             413.257
##########                DOCK_Rotatable_Bonds:                  11
##########                       Formal_Charge:          -0.0100004
##########                     HBond_Acceptors:                   9
##########                        HBond_Donors:                   4
##########                         Heavy_Atoms:                  27
##########                          Grid_Score:          -30.510757
##########                     Grid_vdw_energy:          -30.998989
##########                      Grid_es_energy:            0.488231
##########           Internal_energy_repulsive:           10.913686

@<TRIPOS>MOLECULE
ZINC000740930783
 45 46 1 0 0
SMALL
USER_CHARGES


@<TRIPOS>ATOM
      1 C1         -1.1750    0.9894   46.5441 C.3     1  ZINC000740930783    0.0200
      2 O2         -1.2703    0.4406   47.8602 O.3     1  ZINC000740930783   -0.3000
      3 C3         -1.3813    1.3219   48.8901 C.ar    1  ZINC000740930783    0.1200
      4 C4         -2.6244    1.6181   49.4145 C.ar    1  ZINC000740930783   -0.1400
      5 C5         -2.7355    2.5236   50.4731 C.ar    1  ZINC000740930783   -0.0800
      6 C6         -4.0617    2.8431   51.0371 C.2     1  ZINC000740930783    0.5600
      7 O7         -4.6213    3.8769   50.7267 O.2     1  ZINC000740930783   -0.5300
      8 N8         -4.6522    1.9888   51.8961 N.am    1  ZINC000740930783   -0.7200
      9 C9         -5.9677    2.3066   52.4572 C.3     1  ZINC000740930783    0.0900
     10 C10        -7.0516    1.9972   51.4227 C.3     1  ZINC000740930783    0.1400
     11 H11        -6.6768    1.2596   50.7132 H       1  ZINC000740930783    0.1200
     12 O12        -7.4003    3.1947   50.7253 O.3     1  ZINC000740930783   -0.5500
     13 C13        -8.2700    1.4493   52.1202 C.ar    1  ZINC000740930783   -0.1100
     14 C14        -9.1337    2.3050   52.7770 C.ar    1  ZINC000740930783   -0.1000
     15 C15       -10.2515    1.8025   53.4170 C.ar    1  ZINC000740930783   -0.1100
     16 C16       -10.5054    0.4440   53.4008 C.ar    1  ZINC000740930783   -0.1000
     17 C17        -9.6421   -0.4132   52.7443 C.ar    1  ZINC000740930783   -0.1100
     18 C18        -8.5270    0.0898   52.0985 C.ar    1  ZINC000740930783   -0.0300
     19 Cl19       -7.4424   -0.9858   51.2736 Cl      1  ZINC000740930783   -0.0600
     20 C20        -1.5890    3.1255   50.9968 C.ar    1  ZINC000740930783   -0.1000
     21 C21        -0.3505    2.8255   50.4688 C.ar    1  ZINC000740930783   -0.0200
     22 Cl22        1.0736    3.5739   51.1211 Cl      1  ZINC000740930783   -0.0300
     23 C23        -0.2401    1.9215   49.4202 C.ar    1  ZINC000740930783    0.0900
     24 O24         0.9814    1.6290   48.9034 O.3     1  ZINC000740930783   -0.2900
     25 C25         1.5438    0.3606   49.2454 C.3     1  ZINC000740930783    0.0400
     26 C26         2.0727   -0.3062   48.0017 C.2     1  ZINC000740930783    0.5200
     27 N27         2.2774    0.4182   46.8838 N.am    1  ZINC000740930783   -0.8500
     28 O28         2.3140   -1.4947   48.0068 O.2     1  ZINC000740930783   -0.5100
     29 H29        -2.0669    1.5785   46.3306 H       1  ZINC000740930783    0.0600
     30 H30        -0.2938    1.6278   46.4796 H       1  ZINC000740930783    0.0600
     31 H31        -1.0915    0.1804   45.8183 H       1  ZINC000740930783    0.1100
     32 H32        -3.5088    1.1512   49.0069 H       1  ZINC000740930783    0.1600
     33 H33        -4.2062    1.1634   52.1428 H       1  ZINC000740930783    0.4100
     34 H34        -6.1363    1.7058   53.3509 H       1  ZINC000740930783    0.0900
     35 H35        -6.0055    3.3643   52.7179 H       1  ZINC000740930783    0.0800
     36 H36        -6.7372    3.8955   50.7911 H       1  ZINC000740930783    0.3800
     37 H37        -8.9354    3.3665   52.7905 H       1  ZINC000740930783    0.1300
     38 H38       -10.9262    2.4717   53.9302 H       1  ZINC000740930783    0.1300
     39 H39       -11.3784    0.0518   53.9016 H       1  ZINC000740930783    0.1400
     40 H40        -9.8407   -1.4746   52.7317 H       1  ZINC000740930783    0.1400
     41 H41        -1.6722    3.8259   51.8147 H       1  ZINC000740930783    0.1500
     42 H42         2.3585    0.5039   49.9553 H       1  ZINC000740930783    0.0900
     43 H43         0.7756   -0.2678   49.6960 H       1  ZINC000740930783    0.0900
     44 H44         2.6189   -0.0107   46.0836 H       1  ZINC000740930783    0.4000
     45 H45         2.0831    1.3686   46.8793 H       1  ZINC000740930783    0.4100
@<TRIPOS>BOND
     1     1     2    1
     2     1    29    1
     3     1    30    1
     4     1    31    1
     5     2     3    1
     6     3    23   ar
     7     3     4   ar
     8     4     5   ar
     9     4    32    1
    10     5     6    1
    11     5    20   ar
    12     6     7    2
    13     6     8   am
    14     8     9    1
    15     8    33    1
    16     9    10    1
    17     9    34    1
    18     9    35    1
    19    10    11    1
    20    10    12    1
    21    10    13    1
    22    12    36    1
    23    13    18   ar
    24    13    14   ar
    25    14    15   ar
    26    14    37    1
    27    15    16   ar
    28    15    38    1
    29    16    17   ar
    30    16    39    1
    31    17    18   ar
    32    17    40    1
    33    18    19    1
    34    20    21   ar
    35    20    41    1
    36    21    22    1
    37    21    23   ar
    38    23    24    1
    39    24    25    1
    40    25    26    1
    41    25    42    1
    42    25    43    1
    43    26    27   am
    44    26    28    2
    45    27    44    1
    46    27    45    1
@<TRIPOS>SUBSTRUCTURE
     1 ZINC000740930783        1 TEMP              0 ****  ****    0 ROOT


##########                                Name:    ZINC001053433946
##########                DOCK_Rotatable_Bonds:                   6
##########                         Heavy_Atoms:                  24
##########                    Molecular_Weight:             337.419
##########                DOCK_Rotatable_Bonds:                   6
##########                       Formal_Charge:               -0.02
##########                     HBond_Acceptors:                   7
##########                        HBond_Donors:                   2
##########                         Heavy_Atoms:                  24
##########                          Grid_Score:          -30.484203
##########                     Grid_vdw_energy:          -29.648407
##########                      Grid_es_energy:           -0.835796
##########           Internal_energy_repulsive:           15.517760

@<TRIPOS>MOLECULE
ZINC001053433946
 51 54 1 0 0
SMALL
USER_CHARGES


@<TRIPOS>ATOM
      1 N1         -1.1173   -0.1844   45.8990 N.am    1  ZINC001053433946   -0.8300
      2 C2         -0.2938    0.3030   44.9499 C.2     1  ZINC001053433946    0.5600
      3 O3          0.3707   -0.4552   44.2758 O.2     1  ZINC001053433946   -0.5500
      4 C4         -0.1986    1.7903   44.7263 C.3     1  ZINC001053433946   -0.1600
      5 H5         -1.1350    2.2891   44.4763 H       1  ZINC001053433946    0.1400
      6 C6          1.0816    2.3275   44.0833 C.3     1  ZINC001053433946   -0.1300
      7 C7          0.8126    2.5684   45.5708 C.3     1  ZINC001053433946   -0.1700
      8 H8          0.5417    3.5790   45.8761 H       1  ZINC001053433946    0.1400
      9 C9          1.6379    1.7892   46.5622 C.2     1  ZINC001053433946    0.5400
     10 O10         2.5155    1.0488   46.1716 O.2     1  ZINC001053433946   -0.5200
     11 N11         1.4007    1.9151   47.8830 N.am    1  ZINC001053433946   -0.6100
     12 C12         2.1922    1.1656   48.8711 C.3     1  ZINC001053433946    0.0700
     13 C13         1.2338    0.4205   49.8060 C.3     1  ZINC001053433946    0.0500
     14 O14         0.3019    1.3498   50.3682 O.3     1  ZINC001053433946   -0.3400
     15 C15        -0.4937    2.0291   49.4006 C.3     1  ZINC001053433946    0.0800
     16 C16        -1.5743    1.1479   48.7599 C.3     1  ZINC001053433946   -0.0100
     17 N17        -2.4616    1.6255   49.8445 N.3     1  ZINC001053433946   -0.4700
     18 C18        -3.7969    1.9528   49.3268 C.3     1  ZINC001053433946    0.0200
     19 C19        -4.5743    2.7409   50.3829 C.3     1  ZINC001053433946   -0.1200
     20 H20        -3.9614    3.5657   50.7463 H       1  ZINC001053433946    0.0800
     21 C21        -5.8618    3.2939   49.7640 C.3     1  ZINC001053433946   -0.1200
     22 C22        -6.6685    4.0138   50.8491 C.3     1  ZINC001053433946   -0.1600
     23 C23        -6.9473    3.0403   51.9971 C.3     1  ZINC001053433946    0.0600
     24 O24        -5.7095    2.5399   52.5068 O.3     1  ZINC001053433946   -0.3800
     25 C25        -4.9326    1.8169   51.5498 C.3     1  ZINC001053433946    0.0700
     26 C26        -1.6414    2.8473   50.0070 C.3     1  ZINC001053433946    0.0200
     27 C27         0.3445    2.8124   48.3833 C.3     1  ZINC001053433946    0.1000
     28 H28        -1.1777   -1.1416   46.0436 H       1  ZINC001053433946    0.4000
     29 H29        -1.6467    0.4223   46.4400 H       1  ZINC001053433946    0.4000
     30 H30         1.8549    1.6052   43.8219 H       1  ZINC001053433946    0.1100
     31 H31         0.9874    3.1799   43.4105 H       1  ZINC001053433946    0.1200
     32 H32         2.8334    0.4488   48.3581 H       1  ZINC001053433946    0.1000
     33 H33         2.8038    1.8575   49.4502 H       1  ZINC001053433946    0.0800
     34 H34         0.6937   -0.3402   49.2423 H       1  ZINC001053433946    0.0600
     35 H35         1.8018   -0.0541   50.6062 H       1  ZINC001053433946    0.1100
     36 H36        -1.8782    1.4774   47.7663 H       1  ZINC001053433946    0.0800
     37 H37        -1.3568    0.0809   48.8077 H       1  ZINC001053433946    0.0900
     38 H38        -3.6987    2.5549   48.4234 H       1  ZINC001053433946    0.0500
     39 H39        -4.3317    1.0323   49.0935 H       1  ZINC001053433946    0.0800
     40 H40        -5.6117    3.9965   48.9691 H       1  ZINC001053433946    0.0700
     41 H41        -6.4515    2.4734   49.3552 H       1  ZINC001053433946    0.0700
     42 H42        -6.0984    4.8643   51.2229 H       1  ZINC001053433946    0.0700
     43 H43        -7.6124    4.3627   50.4300 H       1  ZINC001053433946    0.0700
     44 H44        -7.4843    3.5590   52.7913 H       1  ZINC001053433946    0.0900
     45 H45        -7.5519    2.2103   51.6314 H       1  ZINC001053433946    0.0500
     46 H46        -5.5101    0.9708   51.1774 H       1  ZINC001053433946    0.0500
     47 H47        -4.0195    1.4545   52.0220 H       1  ZINC001053433946    0.1000
     48 H48        -1.4773    3.1316   51.0463 H       1  ZINC001053433946    0.1000
     49 H49        -1.9650    3.6802   49.3827 H       1  ZINC001053433946    0.0900
     50 H50         0.7900    3.6827   48.8654 H       1  ZINC001053433946    0.0800
     51 H51        -0.2869    3.1327   47.5545 H       1  ZINC001053433946    0.1000
@<TRIPOS>BOND
     1     1     2   am
     2     1    28    1
     3     1    29    1
     4     2     3    2
     5     2     4    1
     6     4     5    1
     7     4     7    1
     8     4     6    1
     9     6     7    1
    10     6    30    1
    11     6    31    1
    12     7     8    1
    13     7     9    1
    14     9    10    2
    15     9    11   am
    16    11    27    1
    17    11    12    1
    18    12    13    1
    19    12    32    1
    20    12    33    1
    21    13    14    1
    22    13    34    1
    23    13    35    1
    24    14    15    1
    25    15    26    1
    26    15    16    1
    27    15    27    1
    28    16    17    1
    29    16    36    1
    30    16    37    1
    31    17    18    1
    32    17    26    1
    33    18    19    1
    34    18    38    1
    35    18    39    1
    36    19    20    1
    37    19    25    1
    38    19    21    1
    39    21    22    1
    40    21    40    1
    41    21    41    1
    42    22    23    1
    43    22    42    1
    44    22    43    1
    45    23    24    1
    46    23    44    1
    47    23    45    1
    48    24    25    1
    49    25    46    1
    50    25    47    1
    51    26    48    1
    52    26    49    1
    53    27    50    1
    54    27    51    1
@<TRIPOS>SUBSTRUCTURE
     1 ZINC001053433946        1 TEMP              0 ****  ****    0 ROOT


##########                                Name:    ZINC000963156778
##########                DOCK_Rotatable_Bonds:                   6
##########                         Heavy_Atoms:                  24
##########                    Molecular_Weight:             349.414
##########                DOCK_Rotatable_Bonds:                   6
##########                       Formal_Charge:         -0.00999984
##########                     HBond_Acceptors:                   9
##########                        HBond_Donors:                   2
##########                         Heavy_Atoms:                  24
##########                          Grid_Score:          -30.481449
##########                     Grid_vdw_energy:          -29.470156
##########                      Grid_es_energy:           -1.011293
##########           Internal_energy_repulsive:            9.666745

@<TRIPOS>MOLECULE
ZINC000963156778
 43 46 1 0 0
SMALL
USER_CHARGES


@<TRIPOS>ATOM
      1 C1          1.5337    0.5640   45.5386 C.3     1  ZINC000963156778   -0.0800
      2 C2          2.4856    0.2855   46.6733 C.2     1  ZINC000963156778    0.0300
      3 C3          2.4764    0.9614   47.8458 C.2     1  ZINC000963156778   -0.2600
      4 C4          1.5613    2.0846   48.2605 C.3     1  ZINC000963156778    0.1300
      5 N5          0.1710    1.7216   47.9548 N.3     1  ZINC000963156778   -0.5000
      6 C6         -0.6544    2.9327   47.7119 C.3     1  ZINC000963156778    0.0600
      7 C7         -2.1074    2.4663   47.9452 C.3     1  ZINC000963156778   -0.1700
      8 H8         -2.7851    2.4791   47.0915 H       1  ZINC000963156778    0.1200
      9 C9         -1.9905    1.2385   48.8716 C.3     1  ZINC000963156778   -0.1700
     10 H10        -2.5915    0.3426   48.7160 H       1  ZINC000963156778    0.1200
     11 C11        -0.4766    1.0663   49.1202 C.3     1  ZINC000963156778    0.0600
     12 C12        -2.6773    2.5627   49.3618 C.3     1  ZINC000963156778    0.1200
     13 H13        -2.1355    3.1714   50.0857 H       1  ZINC000963156778    0.1400
     14 N14        -4.1346    2.5522   49.5111 N.am    1  ZINC000963156778   -0.7000
     15 C15        -4.7008    3.0428   50.6315 C.2     1  ZINC000963156778    0.5100
     16 O16        -4.0038    3.4943   51.5154 O.2     1  ZINC000963156778   -0.5000
     17 C17        -6.1998    3.0303   50.7859 C.3     1  ZINC000963156778   -0.1300
     18 C18        -6.5870    2.0898   51.9288 C.3     1  ZINC000963156778   -0.1100
     19 H19        -6.2798    2.5067   52.8880 H       1  ZINC000963156778    0.1300
     20 C20        -5.9636    0.6948   51.7186 C.3     1  ZINC000963156778   -0.1600
     21 C21        -7.1655   -0.2176   51.6075 C.2     1  ZINC000963156778    0.5300
     22 O22        -7.1232   -1.4169   51.4352 O.2     1  ZINC000963156778   -0.4800
     23 N23        -8.2831    0.5092   51.7301 N.am    1  ZINC000963156778   -0.6900
     24 C24        -8.0762    1.8221   51.9169 C.2     1  ZINC000963156778    0.5200
     25 O25        -8.9443    2.6576   52.0516 O.2     1  ZINC000963156778   -0.4500
     26 S26         3.7492    0.2435   48.7553 S.3     1  ZINC000963156778    0.4500
     27 N27         4.1689   -0.7891   47.6566 N.2     1  ZINC000963156778   -0.2900
     28 N28         3.4157   -0.6466   46.6367 N.2     1  ZINC000963156778   -0.2400
     29 H29         0.6394   -0.0480   45.6560 H       1  ZINC000963156778    0.0900
     30 H30         1.2562    1.6181   45.5474 H       1  ZINC000963156778    0.0800
     31 H31         2.0169    0.3234   44.5916 H       1  ZINC000963156778    0.0800
     32 H32         1.6639    2.2605   49.3313 H       1  ZINC000963156778    0.1000
     33 H33         1.8283    2.9905   47.7163 H       1  ZINC000963156778    0.0700
     34 H34        -0.3901    3.7206   48.4173 H       1  ZINC000963156778    0.0600
     35 H35        -0.5266    3.2804   46.6869 H       1  ZINC000963156778    0.0800
     36 H36        -0.2151    0.0087   49.1554 H       1  ZINC000963156778    0.1000
     37 H37        -0.1846    1.5621   50.0459 H       1  ZINC000963156778    0.0500
     38 H38        -4.6920    2.1921   48.8037 H       1  ZINC000963156778    0.4000
     39 H39        -6.5504    4.0378   51.0098 H       1  ZINC000963156778    0.1000
     40 H40        -6.6576    2.6839   49.8592 H       1  ZINC000963156778    0.1200
     41 H41        -5.3777    0.6710   50.7997 H       1  ZINC000963156778    0.1200
     42 H42        -5.3485    0.4166   52.5744 H       1  ZINC000963156778    0.1300
     43 H43        -9.1702    0.1190   51.6887 H       1  ZINC000963156778    0.4200
@<TRIPOS>BOND
     1     1     2    1
     2     1    29    1
     3     1    30    1
     4     1    31    1
     5     2    28    1
     6     2     3    2
     7     3     4    1
     8     3    26    1
     9     4     5    1
    10     4    32    1
    11     4    33    1
    12     5    11    1
    13     5     6    1
    14     6     7    1
    15     6    34    1
    16     6    35    1
    17     7     8    1
    18     7    12    1
    19     7     9    1
    20     9    10    1
    21     9    11    1
    22     9    12    1
    23    11    36    1
    24    11    37    1
    25    12    13    1
    26    12    14    1
    27    14    15   am
    28    14    38    1
    29    15    16    2
    30    15    17    1
    31    17    18    1
    32    17    39    1
    33    17    40    1
    34    18    19    1
    35    18    24    1
    36    18    20    1
    37    20    21    1
    38    20    41    1
    39    20    42    1
    40    21    22    2
    41    21    23   am
    42    23    24   am
    43    23    43    1
    44    24    25    2
    45    26    27    1
    46    27    28    2
@<TRIPOS>SUBSTRUCTURE
     1 ZINC000963156778        1 TEMP              0 ****  ****    0 ROOT


##########                                Name:    ZINC000124554441
##########                DOCK_Rotatable_Bonds:                   9
##########                         Heavy_Atoms:                  26
##########                    Molecular_Weight:             375.898
##########                DOCK_Rotatable_Bonds:                   9
##########                       Formal_Charge:         -0.00999991
##########                     HBond_Acceptors:                   6
##########                        HBond_Donors:                   1
##########                         Heavy_Atoms:                  26
##########                          Grid_Score:          -30.465412
##########                     Grid_vdw_energy:          -30.543659
##########                      Grid_es_energy:            0.078246
##########           Internal_energy_repulsive:           13.197541

@<TRIPOS>MOLECULE
ZINC000124554441
 52 53 1 0 0
SMALL
USER_CHARGES


@<TRIPOS>ATOM
      1 C1         -1.2225    0.9554   48.9515 C.3     1  ZINC000124554441   -0.1500
      2 C2         -2.6817    1.3337   49.2133 C.3     1  ZINC000124554441   -0.1300
      3 C3         -2.7379    2.4787   50.2265 C.3     1  ZINC000124554441   -0.1200
      4 C4         -4.1591    2.6007   50.7800 C.3     1  ZINC000124554441   -0.1200
      5 C5         -5.1576    2.6227   49.6210 C.3     1  ZINC000124554441   -0.1300
      6 C6         -6.4367    3.3362   50.0633 C.3     1  ZINC000124554441    0.1200
      7 N7         -7.1557    2.4977   51.0258 N.am    1  ZINC000124554441   -0.7300
      8 C8         -7.8848    3.0691   52.0049 C.2     1  ZINC000124554441    0.5200
      9 O9         -7.9443    4.2775   52.0899 O.2     1  ZINC000124554441   -0.5300
     10 C10        -8.6258    2.2066   52.9937 C.3     1  ZINC000124554441   -0.1200
     11 H11        -8.0025    1.3579   53.2751 H       1  ZINC000124554441    0.1000
     12 C12        -8.9603    3.0300   54.2396 C.3     1  ZINC000124554441   -0.1000
     13 C13        -9.6839    2.1463   55.2581 C.3     1  ZINC000124554441   -0.1400
     14 C14       -10.9943    1.6387   54.6480 C.3     1  ZINC000124554441    0.0900
     15 N15       -10.6951    0.9705   53.3741 N.am    1  ZINC000124554441   -0.6000
     16 C16       -11.1201   -0.2871   53.1419 C.2     1  ZINC000124554441    0.5600
     17 O17       -10.8662   -0.8289   52.0839 O.2     1  ZINC000124554441   -0.5200
     18 C18       -11.8957   -1.0082   54.1747 C.ar    1  ZINC000124554441   -0.0900
     19 C19       -13.2911   -0.9612   54.1591 C.ar    1  ZINC000124554441   -0.0900
     20 C20       -14.0144   -1.6321   55.1201 C.ar    1  ZINC000124554441   -0.0600
     21 C21       -13.3523   -2.3598   56.1114 C.ar    1  ZINC000124554441    0.0100
     22 C22       -14.1041   -3.0575   57.1107 C.1     1  ZINC000124554441    0.2400
     23 N23       -14.7007   -3.6110   57.9034 N.1     1  ZINC000124554441   -0.3800
     24 C24       -11.9550   -2.4072   56.1274 C.ar    1  ZINC000124554441    0.0000
     25 Cl25      -11.1307   -3.3118   57.3587 Cl      1  ZINC000124554441   -0.0400
     26 C26       -11.2323   -1.7401   55.1611 C.ar    1  ZINC000124554441   -0.0600
     27 C27        -9.9238    1.6991   52.3576 C.3     1  ZINC000124554441    0.1200
     28 H28        -0.6891    1.8189   48.5540 H       1  ZINC000124554441    0.0500
     29 H29        -0.7564    0.6383   49.8844 H       1  ZINC000124554441    0.0500
     30 H30        -1.1825    0.1397   48.2297 H       1  ZINC000124554441    0.0500
     31 H31        -3.1479    1.6509   48.2804 H       1  ZINC000124554441    0.0600
     32 H32        -3.2152    0.4702   49.6109 H       1  ZINC000124554441    0.0600
     33 H33        -2.0460    2.2750   51.0437 H       1  ZINC000124554441    0.0600
     34 H34        -2.4574    3.4113   49.7369 H       1  ZINC000124554441    0.0600
     35 H35        -4.3716    1.7492   51.4265 H       1  ZINC000124554441    0.0700
     36 H36        -4.2477    3.5233   51.3535 H       1  ZINC000124554441    0.0700
     37 H37        -4.7203    3.1524   48.7747 H       1  ZINC000124554441    0.0700
     38 H38        -5.3951    1.6005   49.3265 H       1  ZINC000124554441    0.0700
     39 H39        -6.1795    4.2868   50.5306 H       1  ZINC000124554441    0.0700
     40 H40        -7.0703    3.5178   49.1952 H       1  ZINC000124554441    0.0700
     41 H41        -7.1071    1.5312   50.9584 H       1  ZINC000124554441    0.4000
     42 H42        -8.0395    3.4125   54.6800 H       1  ZINC000124554441    0.0800
     43 H43        -9.6035    3.8648   53.9614 H       1  ZINC000124554441    0.0800
     44 H44        -9.0510    1.2978   55.5183 H       1  ZINC000124554441    0.0700
     45 H45        -9.9010    2.7271   56.1546 H       1  ZINC000124554441    0.0900
     46 H46       -11.4649    0.9307   55.3302 H       1  ZINC000124554441    0.1000
     47 H47       -11.6647    2.4796   54.4710 H       1  ZINC000124554441    0.0800
     48 H48       -13.8035   -0.3980   53.3932 H       1  ZINC000124554441    0.1500
     49 H49       -15.0936   -1.5952   55.1073 H       1  ZINC000124554441    0.1500
     50 H50       -10.1531   -1.7763   55.1727 H       1  ZINC000124554441    0.1500
     51 H51       -10.5065    2.5452   51.9935 H       1  ZINC000124554441    0.0800
     52 H52        -9.6886    1.0311   51.5290 H       1  ZINC000124554441    0.1000
@<TRIPOS>BOND
     1     1     2    1
     2     1    28    1
     3     1    29    1
     4     1    30    1
     5     2     3    1
     6     2    31    1
     7     2    32    1
     8     3     4    1
     9     3    33    1
    10     3    34    1
    11     4     5    1
    12     4    35    1
    13     4    36    1
    14     5     6    1
    15     5    37    1
    16     5    38    1
    17     6     7    1
    18     6    39    1
    19     6    40    1
    20     7     8   am
    21     7    41    1
    22     8     9    2
    23     8    10    1
    24    10    11    1
    25    10    27    1
    26    10    12    1
    27    12    13    1
    28    12    42    1
    29    12    43    1
    30    13    14    1
    31    13    44    1
    32    13    45    1
    33    14    15    1
    34    14    46    1
    35    14    47    1
    36    15    16   am
    37    15    27    1
    38    16    17    2
    39    16    18    1
    40    18    26   ar
    41    18    19   ar
    42    19    20   ar
    43    19    48    1
    44    20    21   ar
    45    20    49    1
    46    21    22    1
    47    21    24   ar
    48    22    23    3
    49    24    25    1
    50    24    26   ar
    51    26    50    1
    52    27    51    1
    53    27    52    1
@<TRIPOS>SUBSTRUCTURE
     1 ZINC000124554441        1 TEMP              0 ****  ****    0 ROOT


##########                                Name:    ZINC000894043060
##########                DOCK_Rotatable_Bonds:                  11
##########                         Heavy_Atoms:                  26
##########                    Molecular_Weight:             396.812
##########                DOCK_Rotatable_Bonds:                  11
##########                       Formal_Charge:          -0.0199999
##########                     HBond_Acceptors:                   9
##########                        HBond_Donors:                   2
##########                         Heavy_Atoms:                  26
##########                          Grid_Score:          -30.459803
##########                     Grid_vdw_energy:          -27.965572
##########                      Grid_es_energy:           -2.494231
##########           Internal_energy_repulsive:           13.332438

@<TRIPOS>MOLECULE
ZINC000894043060
 47 47 1 0 0
SMALL
USER_CHARGES


@<TRIPOS>ATOM
      1 C1         -6.4689    3.6396   49.8454 C.3     1  ZINC000894043060   -0.1700
      2 C2         -5.2389    3.1818   50.6318 C.3     1  ZINC000894043060    0.1000
      3 H3         -4.5884    4.0363   50.8187 H       1  ZINC000894043060    0.1100
      4 N4         -4.5108    2.1743   49.8566 N.am    1  ZINC000894043060   -0.7300
      5 C5         -3.1734    2.0647   49.9817 C.2     1  ZINC000894043060    0.5200
      6 O6         -2.5723    2.8011   50.7350 O.2     1  ZINC000894043060   -0.5200
      7 C7         -2.4247    1.0270   49.1856 C.3     1  ZINC000894043060   -0.1400
      8 C8         -1.0959    1.6138   48.7050 C.3     1  ZINC000894043060   -0.0200
      9 C9         -0.0001    1.2976   49.7250 C.3     1  ZINC000894043060   -0.1400
     10 C10         1.3396    1.6990   49.1637 C.2     1  ZINC000894043060    0.5200
     11 O11         1.4810    2.7902   48.6534 O.2     1  ZINC000894043060   -0.5200
     12 N12         2.3806    0.8454   49.2287 N.am    1  ZINC000894043060   -0.7300
     13 C13         3.6834    1.2363   48.6846 C.3     1  ZINC000894043060    0.1000
     14 H14         3.5378    1.9255   47.8528 H       1  ZINC000894043060    0.1200
     15 C15         4.5074    1.9217   49.7766 C.3     1  ZINC000894043060   -0.1700
     16 C16         4.4246   -0.0082   48.1920 C.3     1  ZINC000894043060    0.2600
     17 F17         3.6721   -0.6339   47.1922 F       1  ZINC000894043060   -0.1900
     18 F18         5.6694    0.3648   47.6741 F       1  ZINC000894043060   -0.2000
     19 C19        -0.7321    1.0094   47.3733 C.ar    1  ZINC000894043060   -0.0600
     20 C20        -0.4388    1.8292   46.2996 C.ar    1  ZINC000894043060   -0.1200
     21 C21        -0.1052    1.2755   45.0779 C.ar    1  ZINC000894043060   -0.1200
     22 C22        -0.0648   -0.0996   44.9298 C.ar    1  ZINC000894043060   -0.0400
     23 Cl23        0.3547   -0.7958   43.3958 Cl      1  ZINC000894043060   -0.0800
     24 C24        -0.3585   -0.9195   46.0049 C.ar    1  ZINC000894043060   -0.1100
     25 C25        -0.6865   -0.3646   47.2275 C.ar    1  ZINC000894043060   -0.0400
     26 C26        -5.6823    2.5770   51.9654 C.3     1  ZINC000894043060    0.2600
     27 F27        -6.3775    3.5391   52.7056 F       1  ZINC000894043060   -0.2000
     28 F28        -6.5169    1.4802   51.7255 F       1  ZINC000894043060   -0.1900
     29 H29        -7.1193    2.7852   49.6584 H       1  ZINC000894043060    0.0600
     30 H30        -7.0105    4.3893   50.4221 H       1  ZINC000894043060    0.0800
     31 H31        -6.1530    4.0706   48.8953 H       1  ZINC000894043060    0.0800
     32 H32        -4.9914    1.5861   49.2533 H       1  ZINC000894043060    0.4000
     33 H33        -2.2318    0.1570   49.8131 H       1  ZINC000894043060    0.1000
     34 H34        -3.0225    0.7286   48.3244 H       1  ZINC000894043060    0.1000
     35 H35        -1.1929    2.6943   48.5992 H       1  ZINC000894043060    0.1000
     36 H36        -0.1892    1.8511   50.6448 H       1  ZINC000894043060    0.1000
     37 H37         0.0006    0.2286   49.9378 H       1  ZINC000894043060    0.1000
     38 H38         2.2672   -0.0277   49.6358 H       1  ZINC000894043060    0.4000
     39 H39         4.6529    1.2324   50.6084 H       1  ZINC000894043060    0.0700
     40 H40         5.4767    2.2125   49.3717 H       1  ZINC000894043060    0.0800
     41 H41         3.9794    2.8083   50.1275 H       1  ZINC000894043060    0.0700
     42 H42         4.5688   -0.6981   49.0234 H       1  ZINC000894043060    0.1200
     43 H43        -0.4707    2.9024   46.4152 H       1  ZINC000894043060    0.1200
     44 H44         0.1236    1.9160   44.2390 H       1  ZINC000894043060    0.1300
     45 H45        -0.3274   -1.9929   45.8897 H       1  ZINC000894043060    0.1300
     46 H46        -0.9154   -1.0045   48.0668 H       1  ZINC000894043060    0.1300
     47 H47        -4.8060    2.2509   52.5257 H       1  ZINC000894043060    0.1100
@<TRIPOS>BOND
     1     1     2    1
     2     1    29    1
     3     1    30    1
     4     1    31    1
     5     2     3    1
     6     2     4    1
     7     2    26    1
     8     4     5   am
     9     4    32    1
    10     5     6    2
    11     5     7    1
    12     7     8    1
    13     7    33    1
    14     7    34    1
    15     8     9    1
    16     8    19    1
    17     8    35    1
    18     9    10    1
    19     9    36    1
    20     9    37    1
    21    10    11    2
    22    10    12   am
    23    12    13    1
    24    12    38    1
    25    13    14    1
    26    13    15    1
    27    13    16    1
    28    15    39    1
    29    15    40    1
    30    15    41    1
    31    16    17    1
    32    16    18    1
    33    16    42    1
    34    19    25   ar
    35    19    20   ar
    36    20    21   ar
    37    20    43    1
    38    21    22   ar
    39    21    44    1
    40    22    23    1
    41    22    24   ar
    42    24    25   ar
    43    24    45    1
    44    25    46    1
    45    26    27    1
    46    26    28    1
    47    26    47    1
@<TRIPOS>SUBSTRUCTURE
     1 ZINC000894043060        1 TEMP              0 ****  ****    0 ROOT


##########                                Name:    ZINC001011676549
##########                DOCK_Rotatable_Bonds:                   6
##########                         Heavy_Atoms:                  24
##########                    Molecular_Weight:             330.387
##########                DOCK_Rotatable_Bonds:                   6
##########                       Formal_Charge:        -1.49012e-07
##########                     HBond_Acceptors:                   7
##########                        HBond_Donors:                   1
##########                         Heavy_Atoms:                  24
##########                          Grid_Score:          -30.456669
##########                     Grid_vdw_energy:          -29.889864
##########                      Grid_es_energy:           -0.566806
##########           Internal_energy_repulsive:           18.749823

@<TRIPOS>MOLECULE
ZINC001011676549
 46 48 1 0 0
SMALL
USER_CHARGES


@<TRIPOS>ATOM
      1 C1         -1.4130    1.6993   46.8374 C.3     1  ZINC001011676549   -0.1700
      2 C2         -0.3907    1.3837   47.9311 C.3     1  ZINC001011676549    0.1300
      3 H3          0.0429    2.3088   48.3110 H       1  ZINC001011676549    0.0900
      4 C4         -1.0732    0.6131   49.0808 C.3     1  ZINC001011676549    0.1400
      5 H5         -0.6503    0.9018   50.0431 H       1  ZINC001011676549    0.1100
      6 N6         -2.5212    0.8348   49.0657 N.am    1  ZINC001011676549   -0.7200
      7 C7         -3.0604    1.8169   49.8150 C.2     1  ZINC001011676549    0.5200
      8 O8         -2.3470    2.5160   50.5029 O.2     1  ZINC001011676549   -0.5300
      9 C9         -4.5498    2.0461   49.7980 C.3     1  ZINC001011676549   -0.0900
     10 C10        -5.0177    2.4109   51.1834 C.ar    1  ZINC001011676549   -0.1800
     11 C11        -5.0465    3.7333   51.5973 C.ar    1  ZINC001011676549    0.1600
     12 N12        -5.4635    4.0157   52.8211 N.ar    1  ZINC001011676549   -0.5200
     13 C13        -5.8477    3.0582   53.6412 C.ar    1  ZINC001011676549    0.3000
     14 N14        -5.8338    1.7903   53.2822 N.ar    1  ZINC001011676549   -0.5200
     15 C15        -5.4349    1.4327   52.0721 C.ar    1  ZINC001011676549    0.1600
     16 C16        -0.7370   -0.8663   48.7552 C.3     1  ZINC001011676549   -0.1400
     17 C17         0.6895   -0.7384   48.1651 C.3     1  ZINC001011676549    0.1000
     18 N18         0.6689    0.5197   47.3907 N.am    1  ZINC001011676549   -0.6100
     19 C19         1.4834    0.8211   46.3601 C.2     1  ZINC001011676549    0.5800
     20 O20         2.3255    0.0223   45.9967 O.2     1  ZINC001011676549   -0.5300
     21 C21         1.3539    2.1162   45.6746 C.2     1  ZINC001011676549   -0.1400
     22 C22         1.5424    3.2256   46.3663 C.2     1  ZINC001011676549   -0.1500
     23 C23         1.4225    4.5919   45.7525 C.3     1  ZINC001011676549    0.0900
     24 O24         1.4509    4.4940   44.3272 O.3     1  ZINC001011676549   -0.3800
     25 C25         0.5266    3.5284   43.8116 C.3     1  ZINC001011676549    0.0600
     26 C26         1.0174    2.1318   44.2087 C.3     1  ZINC001011676549   -0.1100
     27 H27        -1.8334    0.7696   46.4537 H       1  ZINC001011676549    0.0600
     28 H28        -2.2112    2.3146   47.2527 H       1  ZINC001011676549    0.0700
     29 H29        -0.9231    2.2384   46.0267 H       1  ZINC001011676549    0.0800
     30 H30        -3.0919    0.2749   48.5165 H       1  ZINC001011676549    0.4100
     31 H31        -4.7846    2.8580   49.1097 H       1  ZINC001011676549    0.1100
     32 H32        -5.0538    1.1362   49.4722 H       1  ZINC001011676549    0.1100
     33 H33        -4.7326    4.5226   50.9303 H       1  ZINC001011676549    0.1700
     34 H34        -6.1827    3.3198   54.6342 H       1  ZINC001011676549    0.2000
     35 H35        -5.4263    0.3918   51.7840 H       1  ZINC001011676549    0.1700
     36 H36        -0.7324   -1.4741   49.6600 H       1  ZINC001011676549    0.0900
     37 H37        -1.4300   -1.2712   48.0178 H       1  ZINC001011676549    0.0800
     38 H38         1.4272   -0.6776   48.9653 H       1  ZINC001011676549    0.0800
     39 H39         0.9067   -1.5831   47.5113 H       1  ZINC001011676549    0.0800
     40 H40         1.7923    3.1476   47.4141 H       1  ZINC001011676549    0.1200
     41 H41         0.4828    5.0473   46.0648 H       1  ZINC001011676549    0.0700
     42 H42         2.2525    5.2134   46.0887 H       1  ZINC001011676549    0.1100
     43 H43        -0.4626    3.7067   44.2331 H       1  ZINC001011676549    0.0600
     44 H44         0.4844    3.6055   42.7251 H       1  ZINC001011676549    0.1000
     45 H45         1.9017    1.8779   43.6242 H       1  ZINC001011676549    0.0900
     46 H46         0.2317    1.4018   44.0135 H       1  ZINC001011676549    0.0900
@<TRIPOS>BOND
     1     1     2    1
     2     1    27    1
     3     1    28    1
     4     1    29    1
     5     2     3    1
     6     2    18    1
     7     2     4    1
     8     4     5    1
     9     4     6    1
    10     4    16    1
    11     6     7   am
    12     6    30    1
    13     7     8    2
    14     7     9    1
    15     9    10    1
    16     9    31    1
    17     9    32    1
    18    10    15   ar
    19    10    11   ar
    20    11    12   ar
    21    11    33    1
    22    12    13   ar
    23    13    14   ar
    24    13    34    1
    25    14    15   ar
    26    15    35    1
    27    16    17    1
    28    16    36    1
    29    16    37    1
    30    17    18    1
    31    17    38    1
    32    17    39    1
    33    18    19   am
    34    19    20    2
    35    19    21    1
    36    21    26    1
    37    21    22    2
    38    22    23    1
    39    22    40    1
    40    23    24    1
    41    23    41    1
    42    23    42    1
    43    24    25    1
    44    25    26    1
    45    25    43    1
    46    25    44    1
    47    26    45    1
    48    26    46    1
@<TRIPOS>SUBSTRUCTURE
     1 ZINC001011676549        1 TEMP              0 ****  ****    0 ROOT


##########                                Name:    ZINC000269356812
##########                DOCK_Rotatable_Bonds:                  10
##########                         Heavy_Atoms:                  25
##########                    Molecular_Weight:             387.431
##########                DOCK_Rotatable_Bonds:                  10
##########                       Formal_Charge:          0.00999978
##########                     HBond_Acceptors:                  10
##########                        HBond_Donors:                   3
##########                         Heavy_Atoms:                  25
##########                          Grid_Score:          -30.437485
##########                     Grid_vdw_energy:          -28.371634
##########                      Grid_es_energy:           -2.065852
##########           Internal_energy_repulsive:           11.289271

@<TRIPOS>MOLECULE
ZINC000269356812
 40 41 1 0 0
SMALL
USER_CHARGES


@<TRIPOS>ATOM
      1 C1          0.1693   -0.4799   49.4673 C.3     1  ZINC000269356812   -0.1400
      2 C2          0.8597    0.8468   49.1446 C.3     1  ZINC000269356812    0.2000
      3 O3          1.9691    0.6075   48.2762 O.3     1  ZINC000269356812   -0.5400
      4 C4         -0.1339    1.7845   48.4560 C.3     1  ZINC000269356812    0.0900
      5 N5         -1.3980    1.7856   49.1965 N.am    1  ZINC000269356812   -0.6900
      6 C6         -2.5119    2.2875   48.6274 C.2     1  ZINC000269356812    0.5100
      7 O7         -2.4674    2.7399   47.5021 O.2     1  ZINC000269356812   -0.5100
      8 C8         -3.8008    2.2870   49.3815 C.2     1  ZINC000269356812    0.5100
      9 O9         -4.7655    2.8730   48.9349 O.2     1  ZINC000269356812   -0.4900
     10 N10        -3.8929    1.6361   50.5581 N.am    1  ZINC000269356812   -0.6400
     11 C11        -5.1005    1.6356   51.2647 C.ar    1  ZINC000269356812    0.0900
     12 C12        -5.2475    2.4152   52.4118 C.ar    1  ZINC000269356812   -0.0600
     13 C13        -6.4581    2.3846   53.0781 C.ar    1  ZINC000269356812   -0.1200
     14 C14        -7.4833    1.5824   52.5860 C.ar    1  ZINC000269356812    0.1000
     15 S15        -9.0316    1.5347   53.4256 S.3     1  ZINC000269356812   -0.0600
     16 C16        -9.9433    0.2489   52.5279 C.3     1  ZINC000269356812    0.2900
     17 F17        -9.1931   -0.9319   52.5151 F       1  ZINC000269356812   -0.1700
     18 F18       -11.1682    0.0163   53.1625 F       1  ZINC000269356812   -0.1700
     19 N19        -7.3083    0.8547   51.4932 N.ar    1  ZINC000269356812   -0.4600
     20 C20        -6.1684    0.8640   50.8295 C.ar    1  ZINC000269356812    0.1100
     21 C21         1.3485    1.4820   50.4207 C.2     1  ZINC000269356812   -0.2300
     22 C22         2.3798    1.0507   51.1485 C.2     1  ZINC000269356812   -0.1100
     23 C23         2.6446    1.7964   52.2843 C.2     1  ZINC000269356812   -0.1400
     24 C24         1.8285    2.8334   52.4787 C.2     1  ZINC000269356812   -0.2000
     25 S25         0.6513    2.9102   51.1741 S.3     1  ZINC000269356812    0.1100
     26 H26         0.8772   -1.1481   49.9578 H       1  ZINC000269356812    0.0800
     27 H27        -0.6769   -0.2975   50.1297 H       1  ZINC000269356812    0.0800
     28 H28        -0.1843   -0.9395   48.5443 H       1  ZINC000269356812    0.0700
     29 H29         2.6783    0.0873   48.6782 H       1  ZINC000269356812    0.3800
     30 H30         0.2752    2.7946   48.4340 H       1  ZINC000269356812    0.0900
     31 H31        -0.3103    1.4418   47.4365 H       1  ZINC000269356812    0.0900
     32 H32        -1.4333    1.4251   50.0964 H       1  ZINC000269356812    0.4200
     33 H33        -3.1218    1.1679   50.9150 H       1  ZINC000269356812    0.4300
     34 H34        -4.4342    3.0284   52.7711 H       1  ZINC000269356812    0.1600
     35 H35        -6.6065    2.9755   53.9699 H       1  ZINC000269356812    0.1500
     36 H36       -10.1212    0.5774   51.5039 H       1  ZINC000269356812    0.1500
     37 H37        -6.0623    0.2574   49.9423 H       1  ZINC000269356812    0.1700
     38 H38         2.9636    0.1849   50.8729 H       1  ZINC000269356812    0.1500
     39 H39         3.4508    1.5565   52.9617 H       1  ZINC000269356812    0.1400
     40 H40         1.8843    3.5225   53.3084 H       1  ZINC000269356812    0.1700
@<TRIPOS>BOND
     1     1     2    1
     2     1    26    1
     3     1    27    1
     4     1    28    1
     5     2     3    1
     6     2     4    1
     7     2    21    1
     8     3    29    1
     9     4     5    1
    10     4    30    1
    11     4    31    1
    12     5     6   am
    13     5    32    1
    14     6     7    2
    15     6     8    1
    16     8     9    2
    17     8    10   am
    18    10    11    1
    19    10    33    1
    20    11    20   ar
    21    11    12   ar
    22    12    13   ar
    23    12    34    1
    24    13    14   ar
    25    13    35    1
    26    14    15    1
    27    14    19   ar
    28    15    16    1
    29    16    17    1
    30    16    18    1
    31    16    36    1
    32    19    20   ar
    33    20    37    1
    34    21    25    1
    35    21    22    2
    36    22    23    1
    37    22    38    1
    38    23    24    2
    39    23    39    1
    40    24    25    1
    41    24    40    1
@<TRIPOS>SUBSTRUCTURE
     1 ZINC000269356812        1 TEMP              0 ****  ****    0 ROOT


##########                                Name:    ZINC000439870054
##########                DOCK_Rotatable_Bonds:                   5
##########                         Heavy_Atoms:                  27
##########                    Molecular_Weight:             421.974
##########                DOCK_Rotatable_Bonds:                   5
##########                       Formal_Charge:           0.0200003
##########                     HBond_Acceptors:                   9
##########                        HBond_Donors:                   0
##########                         Heavy_Atoms:                  27
##########                          Grid_Score:          -30.433710
##########                     Grid_vdw_energy:          -29.698072
##########                      Grid_es_energy:           -0.735637
##########           Internal_energy_repulsive:           62.349766

@<TRIPOS>MOLECULE
ZINC000439870054
 47 50 1 0 0
SMALL
USER_CHARGES


@<TRIPOS>ATOM
      1 C1         -0.4569   -1.3239   48.2575 C.3     1  ZINC000439870054   -0.1400
      2 C2          0.1654    0.0427   47.9644 C.3     1  ZINC000439870054    0.0000
      3 C3          0.2781    0.2379   46.4509 C.3     1  ZINC000439870054   -0.1400
      4 C4         -0.7048    1.1264   48.5471 C.2     1  ZINC000439870054    0.1900
      5 N5         -1.9221    1.4291   48.1759 N.2     1  ZINC000439870054   -0.2900
      6 N6         -2.3639    2.4086   48.8885 N.2     1  ZINC000439870054   -0.2700
      7 C7         -1.4518    2.7706   49.7370 C.2     1  ZINC000439870054    0.1600
      8 C8         -1.5043    3.8753   50.7646 C.3     1  ZINC000439870054    0.2400
      9 H9         -1.4659    4.8457   50.2699 H       1  ZINC000439870054    0.1100
     10 C10        -2.7878    3.7604   51.5895 C.3     1  ZINC000439870054   -0.1300
     11 N11        -0.3264    3.7079   51.6370 N.am    1  ZINC000439870054   -0.6300
     12 C12        -0.4305    3.8371   52.9744 C.2     1  ZINC000439870054    0.5300
     13 O13        -1.5039    4.0945   53.4770 O.2     1  ZINC000439870054   -0.4900
     14 C14         0.7867    3.6617   53.8454 C.3     1  ZINC000439870054   -0.0700
     15 C15         0.4645    4.0956   55.2522 C.2     1  ZINC000439870054    0.0900
     16 C16         0.3496    5.3837   55.5883 C.2     1  ZINC000439870054   -0.2400
     17 S17        -0.0298    5.4750   57.3070 S.3     1  ZINC000439870054    0.1300
     18 C18         0.0055    3.7162   57.4037 C.2     1  ZINC000439870054    0.1400
     19 C19        -0.2352    2.9229   58.6189 C.2     1  ZINC000439870054   -0.1300
     20 C20        -0.3640    1.5788   58.6602 C.2     1  ZINC000439870054   -0.1000
     21 C21        -0.5849    1.0602   59.9177 C.2     1  ZINC000439870054   -0.1200
     22 C22        -0.6379    1.9648   60.9028 C.2     1  ZINC000439870054   -0.1500
     23 Cl23       -0.9025    1.6010   62.5796 Cl      1  ZINC000439870054    0.0000
     24 S24        -0.3922    3.5767   60.2442 S.3     1  ZINC000439870054    0.2500
     25 N25         0.2740    3.2305   56.2227 N.2     1  ZINC000439870054   -0.4400
     26 C26         0.9647    3.3955   51.0056 C.3     1  ZINC000439870054    0.0900
     27 C27         0.8709    2.0317   50.3112 C.3     1  ZINC000439870054    0.0900
     28 N28        -0.3772    1.9621   49.5527 N.pl3   1  ZINC000439870054   -0.4700
     29 H29         0.1724   -2.1077   47.8359 H       1  ZINC000439870054    0.0700
     30 H30        -0.5373   -1.4628   49.3356 H       1  ZINC000439870054    0.0500
     31 H31        -1.4494   -1.3747   47.8096 H       1  ZINC000439870054    0.0700
     32 H32         1.1578    0.0936   48.4121 H       1  ZINC000439870054    0.0800
     33 H33         0.7214    1.2115   46.2421 H       1  ZINC000439870054    0.0500
     34 H34         0.9074   -0.5459   46.0295 H       1  ZINC000439870054    0.0700
     35 H35        -0.7144    0.1870   46.0032 H       1  ZINC000439870054    0.0700
     36 H36        -2.7425    2.8649   52.2092 H       1  ZINC000439870054    0.0600
     37 H37        -2.8897    4.6387   52.2271 H       1  ZINC000439870054    0.0900
     38 H38        -3.6454    3.6960   50.9199 H       1  ZINC000439870054    0.0700
     39 H39         1.0837    2.6129   53.8478 H       1  ZINC000439870054    0.1100
     40 H40         1.6030    4.2697   53.4556 H       1  ZINC000439870054    0.1200
     41 H41         0.4692    6.2247   54.9212 H       1  ZINC000439870054    0.1800
     42 H42        -0.2994    0.9598   57.7776 H       1  ZINC000439870054    0.1500
     43 H43        -0.7067    0.0019   60.0952 H       1  ZINC000439870054    0.1600
     44 H44         1.2052    4.1629   50.2698 H       1  ZINC000439870054    0.0900
     45 H45         1.7439    3.3635   51.7671 H       1  ZINC000439870054    0.1200
     46 H46         1.7176    1.9078   49.6360 H       1  ZINC000439870054    0.1100
     47 H47         0.8824    1.2400   51.0603 H       1  ZINC000439870054    0.0900
@<TRIPOS>BOND
     1     1     2    1
     2     1    29    1
     3     1    30    1
     4     1    31    1
     5     2     3    1
     6     2     4    1
     7     2    32    1
     8     3    33    1
     9     3    34    1
    10     3    35    1
    11     4    28    1
    12     4     5    2
    13     5     6    1
    14     6     7    2
    15     7    28    1
    16     7     8    1
    17     8     9    1
    18     8    10    1
    19     8    11    1
    20    10    36    1
    21    10    37    1
    22    10    38    1
    23    11    12   am
    24    11    26    1
    25    12    13    2
    26    12    14    1
    27    14    15    1
    28    14    39    1
    29    14    40    1
    30    15    25    1
    31    15    16    2
    32    16    17    1
    33    16    41    1
    34    17    18    1
    35    18    19    1
    36    18    25    2
    37    19    24    1
    38    19    20    2
    39    20    21    1
    40    20    42    1
    41    21    22    2
    42    21    43    1
    43    22    23    1
    44    22    24    1
    45    26    27    1
    46    26    44    1
    47    26    45    1
    48    27    28    1
    49    27    46    1
    50    27    47    1
@<TRIPOS>SUBSTRUCTURE
     1 ZINC000439870054        1 TEMP              0 ****  ****    0 ROOT


##########                                Name:    ZINC000053543817
##########                DOCK_Rotatable_Bonds:                   7
##########                         Heavy_Atoms:                  25
##########                    Molecular_Weight:             350.458
##########                DOCK_Rotatable_Bonds:                   7
##########                       Formal_Charge:           0.0199998
##########                     HBond_Acceptors:                   6
##########                        HBond_Donors:                   2
##########                         Heavy_Atoms:                  25
##########                          Grid_Score:          -30.429380
##########                     Grid_vdw_energy:          -29.331957
##########                      Grid_es_energy:           -1.097423
##########           Internal_energy_repulsive:           14.011809

@<TRIPOS>MOLECULE
ZINC000053543817
 55 56 1 0 0
SMALL
USER_CHARGES


@<TRIPOS>ATOM
      1 C1          1.3979    3.3894   53.3121 C.3     1  ZINC000053543817   -0.0700
      2 C2          0.6901    2.8583   52.0922 C.2     1  ZINC000053543817   -0.0200
      3 C3         -0.5203    3.2528   51.6499 C.2     1  ZINC000053543817   -0.1800
      4 C4         -0.7902    2.5016   50.4918 C.2     1  ZINC000053543817   -0.1900
      5 C5          0.2679    1.6903   50.2880 C.2     1  ZINC000053543817    0.0000
      6 C6          0.3737    0.7173   49.1390 C.3     1  ZINC000053543817   -0.0300
      7 C7         -0.6620    1.1065   48.0774 C.3     1  ZINC000053543817   -0.0500
      8 C8         -0.2401    2.4170   47.4098 C.3     1  ZINC000053543817   -0.1500
      9 C9         -0.7499    0.0021   47.0221 C.3     1  ZINC000053543817   -0.1400
     10 C10        -2.0306    1.2889   48.7395 C.3     1  ZINC000053543817   -0.1200
     11 C11        -2.0111    2.5514   49.6108 C.3     1  ZINC000053543817    0.2200
     12 H12        -1.9695    3.4357   48.9748 H       1  ZINC000053543817    0.1000
     13 N13        -3.2175    2.5970   50.4406 N.am    1  ZINC000053543817   -0.7100
     14 C14        -4.4167    2.8364   49.8739 C.2     1  ZINC000053543817    0.5100
     15 O15        -4.4968    3.0156   48.6771 O.2     1  ZINC000053543817   -0.5300
     16 C16        -5.6579    2.8814   50.7274 C.3     1  ZINC000053543817    0.1400
     17 H17        -6.3279    2.0721   50.4374 H       1  ZINC000053543817    0.1200
     18 C18        -6.3644    4.2239   50.5296 C.3     1  ZINC000053543817   -0.1600
     19 N19        -5.2874    2.7275   52.1364 N.am    1  ZINC000053543817   -0.7000
     20 C20        -6.2392    2.4948   53.0620 C.2     1  ZINC000053543817    0.6600
     21 O21        -7.4046    2.4144   52.7279 O.2     1  ZINC000053543817   -0.5700
     22 O22        -5.8985    2.3518   54.3566 O.3     1  ZINC000053543817   -0.3600
     23 C23        -6.2896    3.4168   55.2627 C.3     1  ZINC000053543817    0.1400
     24 C24        -6.1249    4.7676   54.5635 C.3     1  ZINC000053543817   -0.1800
     25 C25        -7.7522    3.2283   55.6702 C.3     1  ZINC000053543817   -0.1400
     26 C26        -5.4036    3.3766   56.5096 C.3     1  ZINC000053543817   -0.1800
     27 O27         1.1624    1.9147   51.2579 O.3     1  ZINC000053543817   -0.1700
     28 H28         2.3606    2.8896   53.4200 H       1  ZINC000053543817    0.0800
     29 H29         1.5560    4.4623   53.2022 H       1  ZINC000053543817    0.0800
     30 H30         0.7893    3.2005   54.1964 H       1  ZINC000053543817    0.0800
     31 H31        -1.1587    3.9999   52.0977 H       1  ZINC000053543817    0.1400
     32 H32         1.3744    0.7650   48.7095 H       1  ZINC000053543817    0.0900
     33 H33         0.1719   -0.2930   49.4947 H       1  ZINC000053543817    0.0900
     34 H34         0.7335    2.2869   46.9373 H       1  ZINC000053543817    0.0600
     35 H35        -0.9762    2.6937   46.6551 H       1  ZINC000053543817    0.0600
     36 H36        -0.1769    3.2037   48.1615 H       1  ZINC000053543817    0.0600
     37 H37        -1.0499   -0.9317   47.4975 H       1  ZINC000053543817    0.0600
     38 H38        -1.4861    0.2785   46.2673 H       1  ZINC000053543817    0.0600
     39 H39         0.2239   -0.1272   46.5496 H       1  ZINC000053543817    0.0600
     40 H40        -2.7961    1.3900   47.9702 H       1  ZINC000053543817    0.0800
     41 H41        -2.2520    0.4214   49.3612 H       1  ZINC000053543817    0.0700
     42 H42        -3.1533    2.4547   51.3980 H       1  ZINC000053543817    0.4000
     43 H43        -6.6400    4.3386   49.4813 H       1  ZINC000053543817    0.0800
     44 H44        -7.2621    4.2566   51.1470 H       1  ZINC000053543817    0.0800
     45 H45        -5.6943    5.0333   50.8197 H       1  ZINC000053543817    0.0700
     46 H46        -4.3571    2.7928   52.4033 H       1  ZINC000053543817    0.4200
     47 H47        -6.7561    4.7963   53.6753 H       1  ZINC000053543817    0.0600
     48 H48        -6.4184    5.5671   55.2438 H       1  ZINC000053543817    0.0700
     49 H49        -5.0828    4.9018   54.2732 H       1  ZINC000053543817    0.0900
     50 H50        -7.8695    2.2660   56.1684 H       1  ZINC000053543817    0.0700
     51 H51        -8.0457    4.0279   56.3505 H       1  ZINC000053543817    0.0800
     52 H52        -8.3834    3.2570   54.7820 H       1  ZINC000053543817    0.0700
     53 H53        -4.3616    3.5107   56.2192 H       1  ZINC000053543817    0.0900
     54 H54        -5.6971    4.1760   57.1898 H       1  ZINC000053543817    0.0700
     55 H55        -5.5209    2.4142   57.0077 H       1  ZINC000053543817    0.0600
@<TRIPOS>BOND
     1     1     2    1
     2     1    28    1
     3     1    29    1
     4     1    30    1
     5     2    27    1
     6     2     3    2
     7     3     4    1
     8     3    31    1
     9     4    11    1
    10     4     5    2
    11     5     6    1
    12     5    27    1
    13     6     7    1
    14     6    32    1
    15     6    33    1
    16     7     8    1
    17     7     9    1
    18     7    10    1
    19     8    34    1
    20     8    35    1
    21     8    36    1
    22     9    37    1
    23     9    38    1
    24     9    39    1
    25    10    11    1
    26    10    40    1
    27    10    41    1
    28    11    12    1
    29    11    13    1
    30    13    14   am
    31    13    42    1
    32    14    15    2
    33    14    16    1
    34    16    17    1
    35    16    18    1
    36    16    19    1
    37    18    43    1
    38    18    44    1
    39    18    45    1
    40    19    20   am
    41    19    46    1
    42    20    21    2
    43    20    22    1
    44    22    23    1
    45    23    24    1
    46    23    25    1
    47    23    26    1
    48    24    47    1
    49    24    48    1
    50    24    49    1
    51    25    50    1
    52    25    51    1
    53    25    52    1
    54    26    53    1
    55    26    54    1
    56    26    55    1
@<TRIPOS>SUBSTRUCTURE
     1 ZINC000053543817        1 TEMP              0 ****  ****    0 ROOT


##########                                Name:    ZINC000066361645
##########                DOCK_Rotatable_Bonds:                   8
##########                         Heavy_Atoms:                  27
##########                    Molecular_Weight:             392.519
##########                DOCK_Rotatable_Bonds:                   8
##########                       Formal_Charge:           0.0100004
##########                     HBond_Acceptors:                   7
##########                        HBond_Donors:                   2
##########                         Heavy_Atoms:                  27
##########                          Grid_Score:          -30.416840
##########                     Grid_vdw_energy:          -28.904400
##########                      Grid_es_energy:           -1.512440
##########           Internal_energy_repulsive:           10.801215

@<TRIPOS>MOLECULE
ZINC000066361645
 55 57 1 0 0
SMALL
USER_CHARGES


@<TRIPOS>ATOM
      1 C1        -14.0054   -3.5965   57.3261 C.3     1  ZINC000066361645   -0.1400
      2 S2        -13.8210   -1.9887   56.5067 S.3     1  ZINC000066361645   -0.1100
      3 C3        -12.3054   -1.3789   57.1667 C.ar    1  ZINC000066361645   -0.1200
      4 C4        -11.9208   -1.7215   58.4543 C.ar    1  ZINC000066361645   -0.1100
      5 C5        -10.7273   -1.2426   58.9747 C.ar    1  ZINC000066361645    0.0500
      6 C6         -9.9145   -0.4197   58.2047 C.ar    1  ZINC000066361645    0.0700
      7 C7        -10.2982   -0.0744   56.9171 C.ar    1  ZINC000066361645   -0.1100
      8 C8        -11.4878   -0.5557   56.3932 C.ar    1  ZINC000066361645    0.1800
      9 N9        -11.8742   -0.2059   55.0906 N.am    1  ZINC000066361645   -0.6600
     10 C10       -11.3373   -0.8465   54.0334 C.2     1  ZINC000066361645    0.5100
     11 O11       -10.5198   -1.7256   54.2080 O.2     1  ZINC000066361645   -0.5000
     12 C12       -11.7523   -0.4707   52.6343 C.3     1  ZINC000066361645   -0.1500
     13 C13       -11.5394    1.0298   52.4248 C.3     1  ZINC000066361645    0.1600
     14 H14       -11.8518    1.5694   53.3187 H       1  ZINC000066361645    0.1000
     15 C15       -12.3694    1.5006   51.2287 C.3     1  ZINC000066361645   -0.1600
     16 N16       -10.1210    1.2905   52.1676 N.am    1  ZINC000066361645   -0.7200
     17 C17        -9.3891    1.9808   53.0646 C.2     1  ZINC000066361645    0.5300
     18 O18        -9.9047    2.3849   54.0853 O.2     1  ZINC000066361645   -0.5400
     19 C19        -7.9305    2.2504   52.7992 C.3     1  ZINC000066361645   -0.1100
     20 C20        -7.3092    1.0444   52.0919 C.3     1  ZINC000066361645   -0.1100
     21 C21        -5.8282    1.3182   51.8225 C.3     1  ZINC000066361645   -0.1200
     22 C22        -5.6920    2.5563   50.9340 C.3     1  ZINC000066361645   -0.1200
     23 C23        -6.3132    3.7625   51.6413 C.3     1  ZINC000066361645   -0.1200
     24 C24        -7.7942    3.4886   51.9107 C.3     1  ZINC000066361645   -0.1000
     25 O25        -8.7355    0.0531   58.6975 O.3     1  ZINC000066361645   -0.3000
     26 C26        -8.5609   -0.0066   60.1171 C.3     1  ZINC000066361645    0.0200
     27 C27        -8.9938   -1.3989   60.5962 C.3     1  ZINC000066361645    0.0200
     28 O28       -10.3683   -1.5868   60.2426 O.3     1  ZINC000066361645   -0.3100
     29 H29       -13.1547   -4.2309   57.0770 H       1  ZINC000066361645    0.0900
     30 H30       -14.0468   -3.4516   58.4056 H       1  ZINC000066361645    0.0900
     31 H31       -14.9254   -4.0733   56.9880 H       1  ZINC000066361645    0.1100
     32 H32       -12.5516   -2.3619   59.0530 H       1  ZINC000066361645    0.1400
     33 H33        -9.6671    0.5674   56.3203 H       1  ZINC000066361645    0.1600
     34 H34       -12.5278    0.4971   54.9509 H       1  ZINC000066361645    0.4100
     35 H35       -11.1511   -1.0269   51.9151 H       1  ZINC000066361645    0.1000
     36 H36       -12.8056   -0.7117   52.4907 H       1  ZINC000066361645    0.1200
     37 H37       -12.0570    0.9609   50.3347 H       1  ZINC000066361645    0.0600
     38 H38       -13.4248    1.3066   51.4200 H       1  ZINC000066361645    0.0700
     39 H39       -12.2177    2.5696   51.0794 H       1  ZINC000066361645    0.0700
     40 H40        -9.7083    0.9663   51.3518 H       1  ZINC000066361645    0.4000
     41 H41        -7.4150    2.4228   53.7441 H       1  ZINC000066361645    0.1000
     42 H42        -7.4063    0.1623   52.7249 H       1  ZINC000066361645    0.0600
     43 H43        -7.8246    0.8721   51.1470 H       1  ZINC000066361645    0.0700
     44 H44        -5.3129    1.4905   52.7673 H       1  ZINC000066361645    0.0600
     45 H45        -5.3856    0.4590   51.3186 H       1  ZINC000066361645    0.0700
     46 H46        -4.6369    2.7514   50.7421 H       1  ZINC000066361645    0.0600
     47 H47        -6.2074    2.3841   49.9892 H       1  ZINC000066361645    0.0600
     48 H48        -5.7977    3.9347   52.5862 H       1  ZINC000066361645    0.0600
     49 H49        -6.2161    4.6446   51.0084 H       1  ZINC000066361645    0.0700
     50 H50        -8.3096    3.3163   50.9659 H       1  ZINC000066361645    0.0700
     51 H51        -8.2367    4.3478   52.4147 H       1  ZINC000066361645    0.0700
     52 H52        -7.5125    0.1581   60.3659 H       1  ZINC000066361645    0.1300
     53 H53        -9.1768    0.7548   60.5956 H       1  ZINC000066361645    0.0800
     54 H54        -8.3823   -2.1606   60.1126 H       1  ZINC000066361645    0.0800
     55 H55        -8.8798   -1.4673   61.6781 H       1  ZINC000066361645    0.1200
@<TRIPOS>BOND
     1     1     2    1
     2     1    29    1
     3     1    30    1
     4     1    31    1
     5     2     3    1
     6     3     8   ar
     7     3     4   ar
     8     4     5   ar
     9     4    32    1
    10     5    28    1
    11     5     6   ar
    12     6     7   ar
    13     6    25    1
    14     7     8   ar
    15     7    33    1
    16     8     9    1
    17     9    10   am
    18     9    34    1
    19    10    11    2
    20    10    12    1
    21    12    13    1
    22    12    35    1
    23    12    36    1
    24    13    14    1
    25    13    15    1
    26    13    16    1
    27    15    37    1
    28    15    38    1
    29    15    39    1
    30    16    17   am
    31    16    40    1
    32    17    18    2
    33    17    19    1
    34    19    24    1
    35    19    20    1
    36    19    41    1
    37    20    21    1
    38    20    42    1
    39    20    43    1
    40    21    22    1
    41    21    44    1
    42    21    45    1
    43    22    23    1
    44    22    46    1
    45    22    47    1
    46    23    24    1
    47    23    48    1
    48    23    49    1
    49    24    50    1
    50    24    51    1
    51    25    26    1
    52    26    27    1
    53    26    52    1
    54    26    53    1
    55    27    28    1
    56    27    54    1
    57    27    55    1
@<TRIPOS>SUBSTRUCTURE
     1 ZINC000066361645        1 TEMP              0 ****  ****    0 ROOT


##########                                Name:    ZINC000937331732
##########                DOCK_Rotatable_Bonds:                   6
##########                         Heavy_Atoms:                  24
##########                    Molecular_Weight:              333.35
##########                DOCK_Rotatable_Bonds:                   6
##########                       Formal_Charge:          -0.0299999
##########                     HBond_Acceptors:                  10
##########                        HBond_Donors:                   1
##########                         Heavy_Atoms:                  24
##########                          Grid_Score:          -30.409946
##########                     Grid_vdw_energy:          -29.259459
##########                      Grid_es_energy:           -1.150488
##########           Internal_energy_repulsive:           29.699484

@<TRIPOS>MOLECULE
ZINC000937331732
 43 45 1 0 0
SMALL
USER_CHARGES


@<TRIPOS>ATOM
      1 C1         -6.9752    4.5144   49.1597 C.3     1  ZINC000937331732    0.0600
      2 N2         -6.2754    3.5184   49.9750 N.am    1  ZINC000937331732   -0.6100
      3 C3         -5.1542    2.9335   49.5089 C.2     1  ZINC000937331732    0.5000
      4 O4         -4.7255    3.2306   48.4140 O.2     1  ZINC000937331732   -0.5200
      5 C5         -4.4332    1.9103   50.3482 C.3     1  ZINC000937331732    0.1500
      6 N6         -3.0601    1.7586   49.8605 N.am    1  ZINC000937331732   -0.4400
      7 N7         -2.6255    0.8744   48.8634 N.2     1  ZINC000937331732   -0.2800
      8 C8         -1.3502    1.0331   48.7124 C.2     1  ZINC000937331732    0.2600
      9 N9         -0.9176    2.0026   49.5840 N.am    1  ZINC000937331732   -0.5600
     10 C10         0.4616    2.4760   49.7245 C.3     1  ZINC000937331732    0.1000
     11 C11        -1.9802    2.4482   50.2839 C.2     1  ZINC000937331732    0.6500
     12 O12        -1.9667    3.3093   51.1454 O.2     1  ZINC000937331732   -0.5500
     13 C13        -6.7943    3.1583   51.2968 C.3     1  ZINC000937331732    0.1300
     14 H14        -6.0941    3.4538   52.0781 H       1  ZINC000937331732    0.1200
     15 C15        -8.1858    3.8023   51.5344 C.3     1  ZINC000937331732   -0.1500
     16 C16        -8.8130    2.8199   52.5548 C.3     1  ZINC000937331732    0.1000
     17 N17        -8.3430    1.4875   52.1338 N.am    1  ZINC000937331732   -0.6000
     18 C18        -8.9555    0.3174   52.4024 C.2     1  ZINC000937331732    0.6200
     19 O19        -8.4749   -0.7260   52.0038 O.2     1  ZINC000937331732   -0.5400
     20 C20       -10.2083    0.3026   53.1793 C.2     1  ZINC000937331732    0.1400
     21 N21       -10.7736    1.3449   53.7506 N.2     1  ZINC000937331732   -0.4400
     22 C22       -11.8894    0.9541   54.3622 C.2     1  ZINC000937331732   -0.0300
     23 C23       -12.0356   -0.3801   54.1719 C.2     1  ZINC000937331732   -0.0200
     24 N24       -10.9850   -0.7946   53.4250 N.pl3   1  ZINC000937331732   -0.5200
     25 C25        -7.0913    1.6458   51.3732 C.3     1  ZINC000937331732    0.1000
     26 H26        -7.7143    4.0160   48.5324 H       1  ZINC000937331732    0.0700
     27 H27        -7.4755    5.2307   49.8114 H       1  ZINC000937331732    0.0800
     28 H28        -6.2565    5.0374   48.5288 H       1  ZINC000937331732    0.0800
     29 H29        -4.4155    2.2398   51.3870 H       1  ZINC000937331732    0.1300
     30 H30        -4.9511    0.9537   50.2791 H       1  ZINC000937331732    0.1300
     31 H31        -0.7276    0.4916   48.0154 H       1  ZINC000937331732    0.2300
     32 H32         1.1032    1.9384   49.0264 H       1  ZINC000937331732    0.1000
     33 H33         0.5031    3.5435   49.5078 H       1  ZINC000937331732    0.0800
     34 H34         0.8047    2.2985   50.7437 H       1  ZINC000937331732    0.0800
     35 H35        -8.0865    4.7998   51.9626 H       1  ZINC000937331732    0.0900
     36 H36        -8.7658    3.8307   50.6120 H       1  ZINC000937331732    0.0800
     37 H37        -8.4631    3.0448   53.5623 H       1  ZINC000937331732    0.0800
     38 H38        -9.9009    2.8700   52.5101 H       1  ZINC000937331732    0.1100
     39 H39       -12.5632    1.5914   54.9156 H       1  ZINC000937331732    0.1800
     40 H40       -12.8410   -0.9962   54.5434 H       1  ZINC000937331732    0.1900
     41 H41       -10.8131   -1.7010   53.1255 H       1  ZINC000937331732    0.4300
     42 H42        -7.2150    1.2433   50.3679 H       1  ZINC000937331732    0.0800
     43 H43        -6.2791    1.1289   51.8844 H       1  ZINC000937331732    0.0800
@<TRIPOS>BOND
     1     1     2    1
     2     1    26    1
     3     1    27    1
     4     1    28    1
     5     2     3   am
     6     2    13    1
     7     3     4    2
     8     3     5    1
     9     5     6    1
    10     5    29    1
    11     5    30    1
    12     6    11   am
    13     6     7    1
    14     7     8    2
    15     8     9    1
    16     8    31    1
    17     9    10    1
    18     9    11   am
    19    10    32    1
    20    10    33    1
    21    10    34    1
    22    11    12    2
    23    13    14    1
    24    13    25    1
    25    13    15    1
    26    15    16    1
    27    15    35    1
    28    15    36    1
    29    16    17    1
    30    16    37    1
    31    16    38    1
    32    17    18   am
    33    17    25    1
    34    18    19    2
    35    18    20    1
    36    20    24    1
    37    20    21    2
    38    21    22    1
    39    22    23    2
    40    22    39    1
    41    23    24    1
    42    23    40    1
    43    24    41    1
    44    25    42    1
    45    25    43    1
@<TRIPOS>SUBSTRUCTURE
     1 ZINC000937331732        1 TEMP              0 ****  ****    0 ROOT


##########                                Name:    ZINC000458730620
##########                DOCK_Rotatable_Bonds:                   9
##########                         Heavy_Atoms:                  25
##########                    Molecular_Weight:              375.44
##########                DOCK_Rotatable_Bonds:                   9
##########                       Formal_Charge:        -1.86265e-07
##########                     HBond_Acceptors:                   9
##########                        HBond_Donors:                   3
##########                         Heavy_Atoms:                  25
##########                          Grid_Score:          -30.408323
##########                     Grid_vdw_energy:          -31.044363
##########                      Grid_es_energy:            0.636039
##########           Internal_energy_repulsive:           70.553406

@<TRIPOS>MOLECULE
ZINC000458730620
 48 49 1 0 0
SMALL
USER_CHARGES


@<TRIPOS>ATOM
      1 C1         -5.9260    3.6391   53.2855 C.3     1  ZINC000458730620   -0.1600
      2 C2         -5.7759    3.3670   51.7874 C.3     1  ZINC000458730620    0.2000
      3 C3         -6.2146    4.6023   50.9983 C.3     1  ZINC000458730620   -0.1600
      4 N4         -4.3746    3.0659   51.4837 N.am    1  ZINC000458730620   -0.7400
      5 C5         -3.9713    2.9564   50.2024 C.2     1  ZINC000458730620    0.7100
      6 O6         -4.7706    3.1061   49.2984 O.2     1  ZINC000458730620   -0.5800
      7 N7         -2.6819    2.6810   49.9230 N.am    1  ZINC000458730620   -0.7500
      8 C8         -2.2431    2.5637   48.5302 C.3     1  ZINC000458730620    0.1300
      9 C9         -0.8462    1.9410   48.4862 C.3     1  ZINC000458730620    0.1000
     10 N10        -0.9527    0.4901   48.6586 N.am    1  ZINC000458730620   -1.1100
     11 S11         0.3868   -0.4661   48.4740 S.o2    1  ZINC000458730620    2.7000
     12 O12         1.3832    0.0688   49.3344 O.2     1  ZINC000458730620   -0.9400
     13 O13        -0.0664   -1.8107   48.5513 O.2     1  ZINC000458730620   -0.9400
     14 C14         0.9720   -0.2320   46.8287 C.ar    1  ZINC000458730620   -0.7300
     15 C15         2.2461    0.2575   46.6119 C.ar    1  ZINC000458730620    0.0400
     16 C16         2.7067    0.4412   45.3216 C.ar    1  ZINC000458730620   -0.1800
     17 C17         1.8920    0.1349   44.2450 C.ar    1  ZINC000458730620    0.1900
     18 F18         2.3427    0.3142   42.9840 F       1  ZINC000458730620   -0.1200
     19 C19         0.6155   -0.3555   44.4609 C.ar    1  ZINC000458730620   -0.2100
     20 C20         0.1572   -0.5440   45.7532 C.ar    1  ZINC000458730620    0.2200
     21 F21        -1.0882   -1.0224   45.9654 F       1  ZINC000458730620   -0.1100
     22 C22        -6.6504    2.1743   51.3954 C.3     1  ZINC000458730620   -0.1100
     23 C23        -5.8832    1.0639   50.6584 C.3     1  ZINC000458730620   -0.1400
     24 C24        -6.7091    0.0580   51.4774 C.3     1  ZINC000458730620   -0.1400
     25 C25        -6.8608    1.1638   52.5353 C.3     1  ZINC000458730620   -0.1400
     26 H26        -6.9558    3.9233   53.5017 H       1  ZINC000458730620    0.0600
     27 H27        -5.6724    2.7388   53.8454 H       1  ZINC000458730620    0.0500
     28 H28        -5.2568    4.4486   53.5766 H       1  ZINC000458730620    0.0800
     29 H29        -5.5916    5.4519   51.2776 H       1  ZINC000458730620    0.0800
     30 H30        -6.1076    4.4085   49.9310 H       1  ZINC000458730620    0.0500
     31 H31        -7.2572    4.8264   51.2243 H       1  ZINC000458730620    0.0600
     32 H32        -3.7372    2.9453   52.2048 H       1  ZINC000458730620    0.3900
     33 H33        -2.0445    2.5603   50.6441 H       1  ZINC000458730620    0.4000
     34 H34        -2.9404    1.9306   47.9816 H       1  ZINC000458730620    0.0800
     35 H35        -2.2143    3.5532   48.0737 H       1  ZINC000458730620    0.0800
     36 H36        -0.3811    2.1596   47.5250 H       1  ZINC000458730620    0.0900
     37 H37        -0.2370    2.3584   49.2878 H       1  ZINC000458730620    0.0700
     38 H38        -1.8076    0.0895   48.8809 H       1  ZINC000458730620    0.4300
     39 H39         2.8821    0.4970   47.4512 H       1  ZINC000458730620    0.1700
     40 H40         3.7024    0.8241   45.1534 H       1  ZINC000458730620    0.1600
     41 H41        -0.0207   -0.5946   43.6216 H       1  ZINC000458730620    0.1600
     42 H42        -7.5742    2.4717   50.8995 H       1  ZINC000458730620    0.1100
     43 H43        -6.0878    1.0280   49.5883 H       1  ZINC000458730620    0.0700
     44 H44        -4.8177    1.0432   50.8875 H       1  ZINC000458730620    0.0800
     45 H45        -7.6490   -0.2242   51.0030 H       1  ZINC000458730620    0.0800
     46 H46        -6.1335   -0.8008   51.8230 H       1  ZINC000458730620    0.0700
     47 H47        -6.0626    1.1704   53.2776 H       1  ZINC000458730620    0.0800
     48 H48        -7.8546    1.2086   52.9806 H       1  ZINC000458730620    0.0700
@<TRIPOS>BOND
     1     1     2    1
     2     1    26    1
     3     1    27    1
     4     1    28    1
     5     2     3    1
     6     2     4    1
     7     2    22    1
     8     3    29    1
     9     3    30    1
    10     3    31    1
    11     4     5   am
    12     4    32    1
    13     5     6    2
    14     5     7   am
    15     7     8    1
    16     7    33    1
    17     8     9    1
    18     8    34    1
    19     8    35    1
    20     9    10    1
    21     9    36    1
    22     9    37    1
    23    10    11   am
    24    10    38    1
    25    11    12    2
    26    11    13    2
    27    11    14    1
    28    14    20   ar
    29    14    15   ar
    30    15    16   ar
    31    15    39    1
    32    16    17   ar
    33    16    40    1
    34    17    18    1
    35    17    19   ar
    36    19    20   ar
    37    19    41    1
    38    20    21    1
    39    22    25    1
    40    22    23    1
    41    22    42    1
    42    23    24    1
    43    23    43    1
    44    23    44    1
    45    24    25    1
    46    24    45    1
    47    24    46    1
    48    25    47    1
    49    25    48    1
@<TRIPOS>SUBSTRUCTURE
     1 ZINC000458730620        1 TEMP              0 ****  ****    0 ROOT


##########                                Name:    ZINC001400108193
##########                DOCK_Rotatable_Bonds:                   9
##########                         Heavy_Atoms:                  25
##########                    Molecular_Weight:              344.41
##########                DOCK_Rotatable_Bonds:                   9
##########                       Formal_Charge:           0.0200001
##########                     HBond_Acceptors:                   6
##########                        HBond_Donors:                   2
##########                         Heavy_Atoms:                  25
##########                          Grid_Score:          -30.372784
##########                     Grid_vdw_energy:          -29.944342
##########                      Grid_es_energy:           -0.428442
##########           Internal_energy_repulsive:            7.936829

@<TRIPOS>MOLECULE
ZINC001400108193
 49 50 1 0 0
SMALL
USER_CHARGES


@<TRIPOS>ATOM
      1 C1        -12.9844    1.2833   53.5290 C.3     1  ZINC001400108193   -0.0800
      2 C2        -11.8061    0.6272   52.8564 C.2     1  ZINC001400108193   -0.0100
      3 C3        -10.5239    0.9955   53.0000 C.2     1  ZINC001400108193   -0.1600
      4 C4         -9.7426    0.0748   52.1612 C.2     1  ZINC001400108193   -0.2300
      5 C5         -8.2807    0.0624   51.9751 C.2     1  ZINC001400108193    0.5900
      6 O6         -7.7651   -0.7809   51.2666 O.2     1  ZINC001400108193   -0.5300
      7 N7         -7.5152    0.9857   52.5898 N.am    1  ZINC001400108193   -0.7300
      8 C8         -6.0618    0.9723   52.4061 C.3     1  ZINC001400108193    0.1100
      9 C9         -5.6806    1.9408   51.2846 C.3     1  ZINC001400108193    0.1300
     10 H10        -6.2409    1.6918   50.3835 H       1  ZINC001400108193    0.1000
     11 C11        -6.0119    3.3720   51.7121 C.3     1  ZINC001400108193   -0.1600
     12 N12        -4.2452    1.8323   51.0127 N.am    1  ZINC001400108193   -0.7300
     13 C13        -3.7463    2.2717   49.8403 C.2     1  ZINC001400108193    0.5200
     14 O14        -4.4855    2.7584   49.0111 O.2     1  ZINC001400108193   -0.5100
     15 C15        -2.2699    2.1585   49.5598 C.3     1  ZINC001400108193    0.0700
     16 H16        -1.8429    1.3663   50.1748 H       1  ZINC001400108193    0.1000
     17 C17        -2.0557    1.8279   48.0814 C.3     1  ZINC001400108193   -0.1800
     18 O18        -1.6299    3.3983   49.8683 O.3     1  ZINC001400108193   -0.2800
     19 C19        -1.0469    3.5042   51.0913 C.ar    1  ZINC001400108193    0.1200
     20 C20        -1.7570    4.0412   52.1553 C.ar    1  ZINC001400108193   -0.2100
     21 C21        -1.1622    4.1472   53.3976 C.ar    1  ZINC001400108193   -0.0800
     22 C22         0.1412    3.7236   53.5798 C.ar    1  ZINC001400108193   -0.1200
     23 C23         0.7897    3.8463   54.9347 C.3     1  ZINC001400108193   -0.1100
     24 C24         0.8493    3.1833   52.5222 C.ar    1  ZINC001400108193   -0.0800
     25 C25         0.2590    3.0750   51.2779 C.ar    1  ZINC001400108193   -0.1400
     26 C26       -10.6542   -0.7616   51.5866 C.2     1  ZINC001400108193    0.0200
     27 O27       -11.8719   -0.4189   52.0181 O.3     1  ZINC001400108193   -0.1700
     28 H28       -13.3641    2.0850   52.8956 H       1  ZINC001400108193    0.0900
     29 H29       -13.7692    0.5441   53.6893 H       1  ZINC001400108193    0.0800
     30 H30       -12.6719    1.6954   54.4885 H       1  ZINC001400108193    0.0900
     31 H31       -10.1435    1.8031   53.6078 H       1  ZINC001400108193    0.1600
     32 H32        -7.9266    1.6591   53.1539 H       1  ZINC001400108193    0.4000
     33 H33        -5.7382   -0.0346   52.1424 H       1  ZINC001400108193    0.0800
     34 H34        -5.5757    1.2793   53.3321 H       1  ZINC001400108193    0.0900
     35 H35        -5.7404    4.0619   50.9132 H       1  ZINC001400108193    0.0700
     36 H36        -7.0800    3.4527   51.9145 H       1  ZINC001400108193    0.0700
     37 H37        -5.4516    3.6210   52.6133 H       1  ZINC001400108193    0.0600
     38 H38        -3.6538    1.4441   51.6764 H       1  ZINC001400108193    0.4000
     39 H39        -2.5438    0.8822   47.8460 H       1  ZINC001400108193    0.0800
     40 H40        -2.4826    2.6201   47.4664 H       1  ZINC001400108193    0.0800
     41 H41        -0.9878    1.7460   47.8784 H       1  ZINC001400108193    0.0800
     42 H42        -2.7737    4.3763   52.0123 H       1  ZINC001400108193    0.1300
     43 H43        -1.7144    4.5655   54.2262 H       1  ZINC001400108193    0.1300
     44 H44         0.6066    2.9379   55.5086 H       1  ZINC001400108193    0.0700
     45 H45         1.8633    3.9885   54.8121 H       1  ZINC001400108193    0.0700
     46 H46         0.3679    4.7012   55.4633 H       1  ZINC001400108193    0.0700
     47 H47         1.8659    2.8494   52.6681 H       1  ZINC001400108193    0.1300
     48 H48         0.8138    2.6563   50.4513 H       1  ZINC001400108193    0.1300
     49 H49       -10.4299   -1.5659   50.9016 H       1  ZINC001400108193    0.2100
@<TRIPOS>BOND
     1     1     2    1
     2     1    28    1
     3     1    29    1
     4     1    30    1
     5     2    27    1
     6     2     3    2
     7     3     4    1
     8     3    31    1
     9     4     5    1
    10     4    26    2
    11     5     6    2
    12     5     7   am
    13     7     8    1
    14     7    32    1
    15     8     9    1
    16     8    33    1
    17     8    34    1
    18     9    10    1
    19     9    11    1
    20     9    12    1
    21    11    35    1
    22    11    36    1
    23    11    37    1
    24    12    13   am
    25    12    38    1
    26    13    14    2
    27    13    15    1
    28    15    16    1
    29    15    17    1
    30    15    18    1
    31    17    39    1
    32    17    40    1
    33    17    41    1
    34    18    19    1
    35    19    25   ar
    36    19    20   ar
    37    20    21   ar
    38    20    42    1
    39    21    22   ar
    40    21    43    1
    41    22    23    1
    42    22    24   ar
    43    23    44    1
    44    23    45    1
    45    23    46    1
    46    24    25   ar
    47    24    47    1
    48    25    48    1
    49    26    27    1
    50    26    49    1
@<TRIPOS>SUBSTRUCTURE
     1 ZINC001400108193        1 TEMP              0 ****  ****    0 ROOT


##########                                Name:    ZINC000279593480
##########                DOCK_Rotatable_Bonds:                   9
##########                         Heavy_Atoms:                  23
##########                    Molecular_Weight:              340.85
##########                DOCK_Rotatable_Bonds:                   9
##########                       Formal_Charge:          -0.0500002
##########                     HBond_Acceptors:                   6
##########                        HBond_Donors:                   3
##########                         Heavy_Atoms:                  23
##########                          Grid_Score:          -30.342716
##########                     Grid_vdw_energy:          -30.010777
##########                      Grid_es_energy:           -0.331939
##########           Internal_energy_repulsive:           11.170953

@<TRIPOS>MOLECULE
ZINC000279593480
 48 49 1 0 0
SMALL
USER_CHARGES


@<TRIPOS>ATOM
      1 C1         -6.7481    5.0452   51.2739 C.3     1  ZINC000279593480   -0.1400
      2 C2         -5.4733    4.4880   51.9106 C.3     1  ZINC000279593480   -0.1400
      3 C3         -5.2335    3.0627   51.4088 C.3     1  ZINC000279593480    0.1700
      4 H4         -5.9544    2.8269   50.6260 H       1  ZINC000279593480    0.0900
      5 C5         -5.4000    2.0789   52.5686 C.3     1  ZINC000279593480   -0.0900
      6 C6         -6.7991    1.5188   52.5554 C.ar    1  ZINC000279593480   -0.0800
      7 C7         -7.8106    2.1707   53.2359 C.ar    1  ZINC000279593480   -0.1000
      8 C8         -9.0939    1.6575   53.2241 C.ar    1  ZINC000279593480   -0.1100
      9 C9         -9.3661    0.4914   52.5312 C.ar    1  ZINC000279593480   -0.0400
     10 Cl10      -10.9778   -0.1534   52.5155 Cl      1  ZINC000279593480   -0.0700
     11 C11        -8.3533   -0.1604   51.8504 C.ar    1  ZINC000279593480   -0.1100
     12 C12        -7.0715    0.3567   51.8582 C.ar    1  ZINC000279593480   -0.1000
     13 N13        -3.8753    2.9568   50.8698 N.am    1  ZINC000279593480   -0.7400
     14 C14        -3.6352    2.1785   49.7959 C.2     1  ZINC000279593480    0.7100
     15 O15        -4.5462    1.5654   49.2736 O.2     1  ZINC000279593480   -0.5800
     16 N16        -2.3856    2.0798   49.3010 N.am    1  ZINC000279593480   -0.7500
     17 C17        -2.1250    1.2351   48.1327 C.3     1  ZINC000279593480    0.1200
     18 C18        -0.6160    1.1406   47.8981 C.3     1  ZINC000279593480    0.0900
     19 O19        -0.0248    2.4414   47.9194 O.3     1  ZINC000279593480   -0.5400
     20 C20         0.0403    0.2269   48.9573 C.3     1  ZINC000279593480   -0.1900
     21 C21         0.6552   -0.9242   48.1308 C.3     1  ZINC000279593480    0.0500
     22 O22         0.8546   -0.3670   46.8133 O.3     1  ZINC000279593480   -0.3600
     23 C23        -0.3200    0.4334   46.5570 C.3     1  ZINC000279593480    0.0900
     24 H24        -1.1576   -0.2027   46.2705 H       1  ZINC000279593480    0.0800
     25 C25        -0.0347    1.4623   45.4612 C.3     1  ZINC000279593480   -0.1400
     26 H26        -7.5955    4.4163   51.5471 H       1  ZINC000279593480    0.0600
     27 H27        -6.9189    6.0605   51.6314 H       1  ZINC000279593480    0.0400
     28 H28        -6.6381    5.0555   50.1895 H       1  ZINC000279593480    0.0600
     29 H29        -4.6259    5.1167   51.6373 H       1  ZINC000279593480    0.0600
     30 H30        -5.5834    4.4776   52.9950 H       1  ZINC000279593480    0.0700
     31 H31        -4.6821    1.2657   52.4612 H       1  ZINC000279593480    0.0800
     32 H32        -5.2246    2.5962   53.5118 H       1  ZINC000279593480    0.0900
     33 H33        -7.5979    3.0808   53.7770 H       1  ZINC000279593480    0.1300
     34 H34        -9.8841    2.1666   53.7561 H       1  ZINC000279593480    0.1300
     35 H35        -8.5650   -1.0710   51.3096 H       1  ZINC000279593480    0.1300
     36 H36        -6.2809   -0.1519   51.3264 H       1  ZINC000279593480    0.1300
     37 H37        -3.1489    3.4468   51.2857 H       1  ZINC000279593480    0.3900
     38 H38        -1.6587    2.5679   49.7184 H       1  ZINC000279593480    0.3900
     39 H39        -2.5286    0.2380   48.3080 H       1  ZINC000279593480    0.0800
     40 H40        -2.6024    1.6713   47.2552 H       1  ZINC000279593480    0.0800
     41 H41        -0.0329    2.8629   48.7897 H       1  ZINC000279593480    0.3700
     42 H42         0.8178    0.7665   49.4980 H       1  ZINC000279593480    0.0900
     43 H43        -0.7102   -0.1574   49.6480 H       1  ZINC000279593480    0.0900
     44 H44         1.6083   -1.2328   48.5603 H       1  ZINC000279593480    0.1000
     45 H45        -0.0327   -1.7684   48.0856 H       1  ZINC000279593480    0.0600
     46 H46         0.2259    0.9463   44.5371 H       1  ZINC000279593480    0.0600
     47 H47        -0.9216    2.0746   45.2978 H       1  ZINC000279593480    0.0700
     48 H48         0.7950    2.0992   45.7679 H       1  ZINC000279593480    0.0700
@<TRIPOS>BOND
     1     1     2    1
     2     1    26    1
     3     1    27    1
     4     1    28    1
     5     2     3    1
     6     2    29    1
     7     2    30    1
     8     3     4    1
     9     3     5    1
    10     3    13    1
    11     5     6    1
    12     5    31    1
    13     5    32    1
    14     6    12   ar
    15     6     7   ar
    16     7     8   ar
    17     7    33    1
    18     8     9   ar
    19     8    34    1
    20     9    10    1
    21     9    11   ar
    22    11    12   ar
    23    11    35    1
    24    12    36    1
    25    13    14   am
    26    13    37    1
    27    14    15    2
    28    14    16   am
    29    16    17    1
    30    16    38    1
    31    17    18    1
    32    17    39    1
    33    17    40    1
    34    18    23    1
    35    18    19    1
    36    18    20    1
    37    19    41    1
    38    20    21    1
    39    20    42    1
    40    20    43    1
    41    21    22    1
    42    21    44    1
    43    21    45    1
    44    22    23    1
    45    23    24    1
    46    23    25    1
    47    25    46    1
    48    25    47    1
    49    25    48    1
@<TRIPOS>SUBSTRUCTURE
     1 ZINC000279593480        1 TEMP              0 ****  ****    0 ROOT


##########                                Name:    ZINC000252489163
##########                DOCK_Rotatable_Bonds:                   6
##########                         Heavy_Atoms:                  25
##########                    Molecular_Weight:             379.403
##########                DOCK_Rotatable_Bonds:                   6
##########                       Formal_Charge:          0.00999963
##########                     HBond_Acceptors:                  10
##########                        HBond_Donors:                   2
##########                         Heavy_Atoms:                  25
##########                          Grid_Score:          -30.342716
##########                     Grid_vdw_energy:          -30.741100
##########                      Grid_es_energy:            0.398384
##########           Internal_energy_repulsive:           11.924047

@<TRIPOS>MOLECULE
ZINC000252489163
 45 46 1 0 0
SMALL
USER_CHARGES


@<TRIPOS>ATOM
      1 C1         -2.0603    4.4802   52.8740 C.3     1  ZINC000252489163   -0.1100
      2 C2         -2.7737    3.5913   51.8880 C.ar    1  ZINC000252489163   -0.0600
      3 C3         -2.1710    3.2692   50.6881 C.ar    1  ZINC000252489163   -0.1300
      4 C4         -2.8290    2.4496   49.7801 C.ar    1  ZINC000252489163    0.1700
      5 N5         -2.2207    2.1208   48.5634 N.am    1  ZINC000252489163   -0.6800
      6 C6         -1.3248    1.1154   48.5079 C.2     1  ZINC000252489163    0.7100
      7 O7         -1.0451    0.4941   49.5149 O.2     1  ZINC000252489163   -0.5500
      8 N8         -0.7390    0.7988   47.3361 N.am    1  ZINC000252489163   -0.6200
      9 C9          0.2395   -0.2946   47.2597 C.3     1  ZINC000252489163    0.1000
     10 C10         1.5243    0.2376   46.6172 C.3     1  ZINC000252489163   -0.1400
     11 C11         1.1883    0.8758   45.2674 C.3     1  ZINC000252489163   -0.1300
     12 C12         0.2323    2.0516   45.4810 C.3     1  ZINC000252489163    0.1400
     13 H13         0.6958    2.7813   46.1451 H       1  ZINC000252489163    0.0900
     14 N14        -0.0634    2.6820   44.1920 N.am    1  ZINC000252489163   -1.1100
     15 S15         0.7612    4.0405   43.7262 S.o2    1  ZINC000252489163    2.6100
     16 C16         2.4990    3.5222   43.6814 C.3     1  ZINC000252489163   -0.6700
     17 O17         0.2860    4.3059   42.4136 O.2     1  ZINC000252489163   -0.9500
     18 O18         0.5431    4.9630   44.7849 O.2     1  ZINC000252489163   -0.9500
     19 C19        -1.0713    1.5363   46.1097 C.3     1  ZINC000252489163    0.1100
     20 C20        -4.0913    1.9569   50.0823 C.ar    1  ZINC000252489163   -0.1000
     21 C21        -4.6889    2.2829   51.2843 C.ar    1  ZINC000252489163   -0.1600
     22 C22        -6.0591    1.7484   51.6131 C.3     1  ZINC000252489163    0.5100
     23 F23        -6.0575    0.3548   51.4918 F       1  ZINC000252489163   -0.1700
     24 F24        -6.3952    2.1020   52.9244 F       1  ZINC000252489163   -0.1800
     25 F25        -6.9965    2.2925   50.7286 F       1  ZINC000252489163   -0.1800
     26 C26        -4.0290    3.0947   52.1883 C.ar    1  ZINC000252489163   -0.0900
     27 H27        -1.4576    3.8681   53.5449 H       1  ZINC000252489163    0.0800
     28 H28        -1.4141    5.1740   52.3363 H       1  ZINC000252489163    0.0700
     29 H29        -2.7932    5.0413   53.4538 H       1  ZINC000252489163    0.0700
     30 H30        -1.1891    3.6543   50.4557 H       1  ZINC000252489163    0.1300
     31 H31        -2.4438    2.6165   47.7600 H       1  ZINC000252489163    0.4100
     32 H32         0.4573   -0.6608   48.2630 H       1  ZINC000252489163    0.0800
     33 H33        -0.1645   -1.1047   46.6524 H       1  ZINC000252489163    0.0800
     34 H34         1.9755    0.9843   47.2705 H       1  ZINC000252489163    0.0700
     35 H35         2.2235   -0.5850   46.4666 H       1  ZINC000252489163    0.0900
     36 H36         2.1042    1.2334   44.7968 H       1  ZINC000252489163    0.0800
     37 H37         0.7146    0.1351   44.6232 H       1  ZINC000252489163    0.0800
     38 H38        -0.7420    2.3035   43.6115 H       1  ZINC000252489163    0.4200
     39 H39         2.6171    2.7088   42.9654 H       1  ZINC000252489163    0.1300
     40 H40         3.1217    4.3645   43.3804 H       1  ZINC000252489163    0.1300
     41 H41         2.8022    3.1816   44.6713 H       1  ZINC000252489163    0.1300
     42 H42        -1.5802    0.8768   45.4067 H       1  ZINC000252489163    0.0800
     43 H43        -1.7167    2.3796   46.3554 H       1  ZINC000252489163    0.1100
     44 H44        -4.6057    1.3197   49.3782 H       1  ZINC000252489163    0.1800
     45 H45        -4.4982    3.3477   53.1276 H       1  ZINC000252489163    0.1300
@<TRIPOS>BOND
     1     1     2    1
     2     1    27    1
     3     1    28    1
     4     1    29    1
     5     2    26   ar
     6     2     3   ar
     7     3     4   ar
     8     3    30    1
     9     4     5    1
    10     4    20   ar
    11     5     6   am
    12     5    31    1
    13     6     7    2
    14     6     8   am
    15     8    19    1
    16     8     9    1
    17     9    10    1
    18     9    32    1
    19     9    33    1
    20    10    11    1
    21    10    34    1
    22    10    35    1
    23    11    12    1
    24    11    36    1
    25    11    37    1
    26    12    13    1
    27    12    14    1
    28    12    19    1
    29    14    15   am
    30    14    38    1
    31    15    16    1
    32    15    17    2
    33    15    18    2
    34    16    39    1
    35    16    40    1
    36    16    41    1
    37    19    42    1
    38    19    43    1
    39    20    21   ar
    40    20    44    1
    41    21    22    1
    42    21    26   ar
    43    22    23    1
    44    22    24    1
    45    22    25    1
    46    26    45    1
@<TRIPOS>SUBSTRUCTURE
     1 ZINC000252489163        1 TEMP              0 ****  ****    0 ROOT


##########                                Name:    ZINC001282645012
##########                DOCK_Rotatable_Bonds:                   9
##########                         Heavy_Atoms:                  27
##########                    Molecular_Weight:             372.511
##########                DOCK_Rotatable_Bonds:                   9
##########                       Formal_Charge:          -0.0200004
##########                     HBond_Acceptors:                   6
##########                        HBond_Donors:                   1
##########                         Heavy_Atoms:                  27
##########                          Grid_Score:          -30.338837
##########                     Grid_vdw_energy:          -29.406845
##########                      Grid_es_energy:           -0.931992
##########           Internal_energy_repulsive:           44.861382

@<TRIPOS>MOLECULE
ZINC001282645012
 59 61 1 0 0
SMALL
USER_CHARGES


@<TRIPOS>ATOM
      1 C1          1.4630    3.8599   46.1652 C.2     1  ZINC001282645012   -0.1900
      2 C2          0.4330    3.1567   45.7643 C.2     1  ZINC001282645012   -0.1300
      3 C3          0.6422    1.7959   45.1515 C.3     1  ZINC001282645012   -0.0500
      4 C4         -0.7156    1.1529   44.8616 C.3     1  ZINC001282645012   -0.1500
      5 C5          1.4276    1.9396   43.8463 C.3     1  ZINC001282645012   -0.1400
      6 C6          1.4152    0.9268   46.1098 C.2     1  ZINC001282645012    0.5500
      7 O7          2.3965    0.3259   45.7268 O.2     1  ZINC001282645012   -0.5300
      8 N8          1.0159    0.8174   47.3924 N.am    1  ZINC001282645012   -0.6300
      9 C9          1.5925    0.0340   48.5374 C.3     1  ZINC001282645012    0.1200
     10 H10         2.4808   -0.5554   48.3107 H       1  ZINC001282645012    0.1300
     11 C11         0.3462   -0.7791   49.0006 C.3     1  ZINC001282645012   -0.1300
     12 C12        -0.8359    0.1794   48.7144 C.3     1  ZINC001282645012   -0.1300
     13 C13        -0.1391    1.4463   48.1188 C.3     1  ZINC001282645012    0.1200
     14 H14        -0.7776    2.0975   47.5219 H       1  ZINC001282645012    0.1200
     15 C15         0.5698    2.1254   49.3293 C.3     1  ZINC001282645012    0.1300
     16 H16         0.9342    3.1153   49.0549 H       1  ZINC001282645012    0.1000
     17 N17        -0.3371    2.2109   50.4767 N.am    1  ZINC001282645012   -0.7100
     18 C18        -1.1808    3.2555   50.5925 C.2     1  ZINC001282645012    0.5100
     19 O19        -1.1883    4.1256   49.7475 O.2     1  ZINC001282645012   -0.5100
     20 C20        -2.1149    3.3426   51.7718 C.3     1  ZINC001282645012    0.1200
     21 H21        -1.6955    2.7852   52.6094 H       1  ZINC001282645012    0.1300
     22 C22        -2.2946    4.8080   52.1731 C.3     1  ZINC001282645012   -0.1100
     23 C23        -2.5445    4.8972   53.6800 C.3     1  ZINC001282645012   -0.1000
     24 C24        -1.3501    4.3055   54.4310 C.3     1  ZINC001282645012   -0.1500
     25 C25        -2.7241    6.3627   54.0813 C.3     1  ZINC001282645012   -0.1500
     26 N26        -3.4148    2.7729   51.4083 N.pl3   1  ZINC001282645012   -0.4500
     27 C27        -4.5621    2.8267   52.1529 C.2     1  ZINC001282645012   -0.0600
     28 C28        -5.5133    2.1827   51.4501 C.2     1  ZINC001282645012   -0.0200
     29 N29        -4.9619    1.7474   50.3076 N.2     1  ZINC001282645012   -0.4900
     30 C30        -3.7063    2.1017   50.2734 C.2     1  ZINC001282645012    0.1900
     31 C31         1.7839    1.1569   49.6011 C.3     1  ZINC001282645012   -0.1400
     32 H32         2.4621    3.4643   46.0566 H       1  ZINC001282645012    0.1000
     33 H33         1.3135    4.8370   46.6002 H       1  ZINC001282645012    0.1000
     34 H34        -0.5660    3.5522   45.8728 H       1  ZINC001282645012    0.1100
     35 H35        -1.2746    1.7815   44.1684 H       1  ZINC001282645012    0.0700
     36 H36        -0.5642    0.1687   44.4183 H       1  ZINC001282645012    0.0700
     37 H37        -1.2750    1.0505   45.7913 H       1  ZINC001282645012    0.0600
     38 H38         2.3948    2.3977   44.0529 H       1  ZINC001282645012    0.0600
     39 H39         1.5788    0.9554   43.4030 H       1  ZINC001282645012    0.0700
     40 H40         0.8685    2.5682   43.1533 H       1  ZINC001282645012    0.0700
     41 H41         0.2474   -1.6953   48.4183 H       1  ZINC001282645012    0.0800
     42 H42         0.4087   -1.0044   50.0652 H       1  ZINC001282645012    0.0800
     43 H43        -1.5209   -0.2614   47.9901 H       1  ZINC001282645012    0.0700
     44 H44        -1.3595    0.4294   49.6370 H       1  ZINC001282645012    0.0800
     45 H45        -0.3303    1.5157   51.1531 H       1  ZINC001282645012    0.4000
     46 H46        -1.3935    5.3669   51.9206 H       1  ZINC001282645012    0.0900
     47 H47        -3.1455    5.2296   51.6381 H       1  ZINC001282645012    0.0800
     48 H48        -3.4456    4.3383   53.9325 H       1  ZINC001282645012    0.0700
     49 H49        -0.4490    4.8644   54.1784 H       1  ZINC001282645012    0.0600
     50 H50        -1.5282    4.3690   55.5044 H       1  ZINC001282645012    0.0600
     51 H51        -1.2221    3.2615   54.1450 H       1  ZINC001282645012    0.0500
     52 H52        -3.6246    6.7599   53.6127 H       1  ZINC001282645012    0.0600
     53 H53        -2.8168    6.4339   55.1649 H       1  ZINC001282645012    0.0600
     54 H54        -1.8591    6.9382   53.7519 H       1  ZINC001282645012    0.0600
     55 H55        -4.6814    3.2954   53.1186 H       1  ZINC001282645012    0.1700
     56 H56        -6.5402    2.0414   51.7533 H       1  ZINC001282645012    0.1700
     57 H57        -3.0135    1.8877   49.4730 H       1  ZINC001282645012    0.2000
     58 H58         1.7160    0.7272   50.6005 H       1  ZINC001282645012    0.0900
     59 H59         2.7302    1.6817   49.4712 H       1  ZINC001282645012    0.0900
@<TRIPOS>BOND
     1     1     2    2
     2     1    32    1
     3     1    33    1
     4     2     3    1
     5     2    34    1
     6     3     4    1
     7     3     5    1
     8     3     6    1
     9     4    35    1
    10     4    36    1
    11     4    37    1
    12     5    38    1
    13     5    39    1
    14     5    40    1
    15     6     7    2
    16     6     8   am
    17     8    13    1
    18     8     9    1
    19     9    10    1
    20     9    31    1
    21     9    11    1
    22    11    12    1
    23    11    41    1
    24    11    42    1
    25    12    13    1
    26    12    43    1
    27    12    44    1
    28    13    14    1
    29    13    15    1
    30    15    16    1
    31    15    17    1
    32    15    31    1
    33    17    18   am
    34    17    45    1
    35    18    19    2
    36    18    20    1
    37    20    21    1
    38    20    22    1
    39    20    26    1
    40    22    23    1
    41    22    46    1
    42    22    47    1
    43    23    24    1
    44    23    25    1
    45    23    48    1
    46    24    49    1
    47    24    50    1
    48    24    51    1
    49    25    52    1
    50    25    53    1
    51    25    54    1
    52    26    30    1
    53    26    27    1
    54    27    28    2
    55    27    55    1
    56    28    29    1
    57    28    56    1
    58    29    30    2
    59    30    57    1
    60    31    58    1
    61    31    59    1
@<TRIPOS>SUBSTRUCTURE
     1 ZINC001282645012        1 TEMP              0 ****  ****    0 ROOT


##########                                Name:    ZINC001220171460
##########                DOCK_Rotatable_Bonds:                  10
##########                         Heavy_Atoms:                  25
##########                    Molecular_Weight:             383.773
##########                DOCK_Rotatable_Bonds:                  10
##########                       Formal_Charge:           0.0199996
##########                     HBond_Acceptors:                  10
##########                        HBond_Donors:                   3
##########                         Heavy_Atoms:                  25
##########                          Grid_Score:          -30.330856
##########                     Grid_vdw_energy:          -29.059782
##########                      Grid_es_energy:           -1.271074
##########           Internal_energy_repulsive:            6.117095

@<TRIPOS>MOLECULE
ZINC001220171460
 43 44 1 0 0
SMALL
USER_CHARGES


@<TRIPOS>ATOM
      1 C1         -0.8114    0.4995   45.4855 C.3     1  ZINC001220171460    0.0200
      2 O2         -0.4177   -0.4378   46.4897 O.3     1  ZINC001220171460   -0.3100
      3 C3          0.5541   -0.0430   47.3559 C.ar    1  ZINC001220171460    0.1000
      4 C4          1.8573    0.1095   46.9134 C.ar    1  ZINC001220171460   -0.1500
      5 C5          2.8455    0.5112   47.7950 C.ar    1  ZINC001220171460   -0.0600
      6 Cl6         4.4785    0.7022   47.2376 Cl      1  ZINC001220171460   -0.0400
      7 C7          2.5340    0.7614   49.1214 C.ar    1  ZINC001220171460    0.1000
      8 F8          3.5015    1.1538   49.9789 F       1  ZINC001220171460   -0.1200
      9 C9          1.2331    0.6106   49.5693 C.ar    1  ZINC001220171460   -0.1200
     10 C10         0.2385    0.2139   48.6881 C.ar    1  ZINC001220171460    0.1800
     11 N11        -1.0799    0.0606   49.1398 N.am    1  ZINC001220171460   -0.6700
     12 C12        -1.8681    1.1423   49.2982 C.2     1  ZINC001220171460    0.7100
     13 O13        -1.4358    2.2512   49.0493 O.2     1  ZINC001220171460   -0.5700
     14 N14        -3.1355    0.9950   49.7324 N.am    1  ZINC001220171460   -0.7400
     15 C15        -3.9916    2.1710   49.9062 C.3     1  ZINC001220171460    0.1400
     16 C16        -5.3849    1.7256   50.3551 C.3     1  ZINC001220171460   -0.1400
     17 C17        -6.0773    2.8772   51.0867 C.3     1  ZINC001220171460    0.0500
     18 H18        -5.3272    3.5767   51.4555 H       1  ZINC001220171460    0.1000
     19 N19        -6.9817    3.5722   50.1609 N.3     1  ZINC001220171460   -0.6500
     20 C20        -6.3492    4.7804   49.6148 C.3     1  ZINC001220171460    0.0100
     21 C21        -7.2173    6.0332   49.4807 C.3     1  ZINC001220171460   -0.2000
     22 C22        -6.1414    5.9605   50.5661 C.3     1  ZINC001220171460   -0.1600
     23 C23        -6.8809    2.3231   52.2649 C.3     1  ZINC001220171460    0.4600
     24 F24        -7.6886    1.2695   51.8241 F       1  ZINC001220171460   -0.1800
     25 F25        -6.0034    1.8575   53.2500 F       1  ZINC001220171460   -0.1800
     26 F26        -7.6854    3.3360   52.7981 F       1  ZINC001220171460   -0.1700
     27 H27        -1.1925    1.4031   45.9612 H       1  ZINC001220171460    0.0600
     28 H28         0.0492    0.7507   44.8654 H       1  ZINC001220171460    0.0600
     29 H29        -1.5911    0.0597   44.8636 H       1  ZINC001220171460    0.1100
     30 H30         2.1028   -0.0854   45.8798 H       1  ZINC001220171460    0.1500
     31 H31         0.9918    0.8059   50.6037 H       1  ZINC001220171460    0.1800
     32 H32        -1.4248   -0.8241   49.3384 H       1  ZINC001220171460    0.4200
     33 H33        -3.4807    0.1102   49.9298 H       1  ZINC001220171460    0.4000
     34 H34        -3.5590    2.8269   50.6616 H       1  ZINC001220171460    0.0800
     35 H35        -4.0688    2.7072   48.9604 H       1  ZINC001220171460    0.0700
     36 H36        -5.9743    1.4425   49.4831 H       1  ZINC001220171460    0.1000
     37 H37        -5.2946    0.8711   51.0257 H       1  ZINC001220171460    0.1000
     38 H38        -7.2845    2.9567   49.4209 H       1  ZINC001220171460    0.3600
     39 H39        -5.5901    4.6097   48.8513 H       1  ZINC001220171460    0.1200
     40 H40        -7.0295    6.6868   48.6289 H       1  ZINC001220171460    0.1000
     41 H41        -8.2577    5.9608   49.7978 H       1  ZINC001220171460    0.1000
     42 H42        -6.4739    5.8404   51.5971 H       1  ZINC001220171460    0.1000
     43 H43        -5.2458    6.5664   50.4283 H       1  ZINC001220171460    0.1000
@<TRIPOS>BOND
     1     1     2    1
     2     1    27    1
     3     1    28    1
     4     1    29    1
     5     2     3    1
     6     3    10   ar
     7     3     4   ar
     8     4     5   ar
     9     4    30    1
    10     5     6    1
    11     5     7   ar
    12     7     8    1
    13     7     9   ar
    14     9    10   ar
    15     9    31    1
    16    10    11    1
    17    11    12   am
    18    11    32    1
    19    12    13    2
    20    12    14   am
    21    14    15    1
    22    14    33    1
    23    15    16    1
    24    15    34    1
    25    15    35    1
    26    16    17    1
    27    16    36    1
    28    16    37    1
    29    17    18    1
    30    17    19    1
    31    17    23    1
    32    19    20    1
    33    19    38    1
    34    20    22    1
    35    20    21    1
    36    20    39    1
    37    21    22    1
    38    21    40    1
    39    21    41    1
    40    22    42    1
    41    22    43    1
    42    23    24    1
    43    23    25    1
    44    23    26    1
@<TRIPOS>SUBSTRUCTURE
     1 ZINC001220171460        1 TEMP              0 ****  ****    0 ROOT


##########                                Name:    ZINC000918875053
##########                DOCK_Rotatable_Bonds:                   6
##########                         Heavy_Atoms:                  26
##########                    Molecular_Weight:             359.357
##########                DOCK_Rotatable_Bonds:                   6
##########                       Formal_Charge:           0.0200003
##########                     HBond_Acceptors:                   8
##########                        HBond_Donors:                   0
##########                         Heavy_Atoms:                  26
##########                          Grid_Score:          -30.307299
##########                     Grid_vdw_energy:          -29.383396
##########                      Grid_es_energy:           -0.923903
##########           Internal_energy_repulsive:           10.612889

@<TRIPOS>MOLECULE
ZINC000918875053
 44 47 1 0 0
SMALL
USER_CHARGES


@<TRIPOS>ATOM
      1 C1         -0.4373   -0.5759   46.9850 C.3     1  ZINC000918875053   -0.1700
      2 C2         -0.9431    0.4304   45.9493 C.3     1  ZINC000918875053    0.1900
      3 H3         -1.7751   -0.0051   45.3959 H       1  ZINC000918875053    0.1400
      4 O4         -1.3888    1.6365   46.6238 O.3     1  ZINC000918875053   -0.3400
      5 C5         -0.6938    2.0219   47.7056 C.2     1  ZINC000918875053    0.4800
      6 O6          0.4515    2.3886   47.5888 O.2     1  ZINC000918875053   -0.4900
      7 C7         -1.3420    1.9972   49.0658 C.3     1  ZINC000918875053   -0.0900
      8 H8         -0.9610    1.1683   49.6623 H       1  ZINC000918875053    0.1400
      9 C9         -1.1420    3.3440   49.7987 C.3     1  ZINC000918875053   -0.1400
     10 C10        -2.4429    3.5596   50.5401 C.2     1  ZINC000918875053    0.5300
     11 O11        -2.6024    4.3469   51.4490 O.2     1  ZINC000918875053   -0.5000
     12 N12        -3.3966    2.7521   50.0450 N.am    1  ZINC000918875053   -0.5800
     13 C13        -4.7135    2.7014   50.5189 C.ar    1  ZINC000918875053    0.1000
     14 C14        -5.0021    2.0333   51.7005 C.ar    1  ZINC000918875053   -0.0800
     15 C15        -6.3022    1.9851   52.1660 C.ar    1  ZINC000918875053   -0.1200
     16 C16        -7.3162    2.6012   51.4566 C.ar    1  ZINC000918875053   -0.0800
     17 C17        -7.0337    3.2683   50.2784 C.ar    1  ZINC000918875053   -0.1500
     18 C18        -5.7342    3.3255   49.8095 C.ar    1  ZINC000918875053    0.1100
     19 F19        -5.4580    3.9774   48.6590 F       1  ZINC000918875053   -0.1300
     20 C20        -2.8805    1.9293   48.9439 C.3     1  ZINC000918875053    0.1200
     21 C21         0.1717    0.7716   44.9944 C.2     1  ZINC000918875053    0.1800
     22 N22         0.9582   -0.0766   44.3770 N.2     1  ZINC000918875053   -0.4600
     23 C23         1.7922    0.6755   43.6370 C.2     1  ZINC000918875053    0.2100
     24 C24         2.8909    0.1685   42.7388 C.3     1  ZINC000918875053   -0.0900
     25 C25         4.0195    1.1394   42.3860 C.3     1  ZINC000918875053   -0.1600
     26 C26         4.2790   -0.0155   43.3555 C.3     1  ZINC000918875053   -0.1500
     27 N27         1.4762    1.9198   43.8384 N.2     1  ZINC000918875053   -0.3700
     28 O28         0.5438    1.9965   44.6106 O.3     1  ZINC000918875053    0.1000
     29 H29        -1.2436   -0.8227   47.6758 H       1  ZINC000918875053    0.0900
     30 H30        -0.1026   -1.4812   46.4787 H       1  ZINC000918875053    0.0900
     31 H31         0.3947   -0.1404   47.5385 H       1  ZINC000918875053    0.0800
     32 H32        -0.3100    3.2770   50.4996 H       1  ZINC000918875053    0.1300
     33 H33        -0.9741    4.1474   49.0814 H       1  ZINC000918875053    0.1100
     34 H34        -4.2111    1.5509   52.2556 H       1  ZINC000918875053    0.1400
     35 H35        -6.5266    1.4651   53.0857 H       1  ZINC000918875053    0.1400
     36 H36        -8.3313    2.5611   51.8229 H       1  ZINC000918875053    0.1400
     37 H37        -7.8282    3.7486   49.7265 H       1  ZINC000918875053    0.1400
     38 H38        -3.2008    2.3378   47.9855 H       1  ZINC000918875053    0.1000
     39 H39        -3.2232    0.9000   49.0495 H       1  ZINC000918875053    0.1000
     40 H40         2.5816   -0.5436   41.9738 H       1  ZINC000918875053    0.1400
     41 H41         4.4530    1.0663   41.3886 H       1  ZINC000918875053    0.1100
     42 H42         3.9673    2.1449   42.8035 H       1  ZINC000918875053    0.1000
     43 H43         4.3974    0.2302   44.4108 H       1  ZINC000918875053    0.1000
     44 H44         4.8831   -0.8484   42.9957 H       1  ZINC000918875053    0.1100
@<TRIPOS>BOND
     1     1     2    1
     2     1    29    1
     3     1    30    1
     4     1    31    1
     5     2     3    1
     6     2     4    1
     7     2    21    1
     8     4     5    1
     9     5     6    2
    10     5     7    1
    11     7     8    1
    12     7    20    1
    13     7     9    1
    14     9    10    1
    15     9    32    1
    16     9    33    1
    17    10    11    2
    18    10    12   am
    19    12    13    1
    20    12    20    1
    21    13    18   ar
    22    13    14   ar
    23    14    15   ar
    24    14    34    1
    25    15    16   ar
    26    15    35    1
    27    16    17   ar
    28    16    36    1
    29    17    18   ar
    30    17    37    1
    31    18    19    1
    32    20    38    1
    33    20    39    1
    34    21    28    1
    35    21    22    2
    36    22    23    1
    37    23    24    1
    38    23    27    2
    39    24    26    1
    40    24    25    1
    41    24    40    1
    42    25    26    1
    43    25    41    1
    44    25    42    1
    45    26    43    1
    46    26    44    1
    47    27    28    1
@<TRIPOS>SUBSTRUCTURE
     1 ZINC000918875053        1 TEMP              0 ****  ****    0 ROOT


##########                                Name:    ZINC000482187991
##########                DOCK_Rotatable_Bonds:                  11
##########                         Heavy_Atoms:                  29
##########                    Molecular_Weight:             407.414
##########                DOCK_Rotatable_Bonds:                  11
##########                       Formal_Charge:           0.0299996
##########                     HBond_Acceptors:                   8
##########                        HBond_Donors:                   1
##########                         Heavy_Atoms:                  29
##########                          Grid_Score:          -30.302742
##########                     Grid_vdw_energy:          -28.940901
##########                      Grid_es_energy:           -1.361841
##########           Internal_energy_repulsive:           14.112843

@<TRIPOS>MOLECULE
ZINC000482187991
 52 53 1 0 0
SMALL
USER_CHARGES


@<TRIPOS>ATOM
      1 C1         -7.8857    2.6607   58.3819 C.3     1  ZINC000482187991    0.0200
      2 O2         -7.6010    1.2699   58.2181 O.3     1  ZINC000482187991   -0.3000
      3 C3         -8.6654    0.4320   58.0970 C.ar    1  ZINC000482187991    0.1400
      4 C4         -9.5256    0.5600   57.0240 C.ar    1  ZINC000482187991   -0.1700
      5 C5        -10.6207   -0.3033   56.9000 C.ar    1  ZINC000482187991   -0.1000
      6 C6        -11.5374   -0.1707   55.7603 C.2     1  ZINC000482187991    0.4000
      7 O7        -12.2876    0.7802   55.6929 O.2     1  ZINC000482187991   -0.4500
      8 C8        -11.5460   -1.2157   54.6746 C.3     1  ZINC000482187991   -0.1500
      9 C9        -10.6786   -0.7441   53.5058 C.3     1  ZINC000482187991   -0.1300
     10 C10       -11.5502   -0.4942   52.3021 C.2     1  ZINC000482187991    0.5200
     11 O11       -11.1283   -0.7267   51.1891 O.2     1  ZINC000482187991   -0.5200
     12 N12       -12.7985   -0.0121   52.4624 N.am    1  ZINC000482187991   -0.7200
     13 C13       -13.6452    0.2325   51.2921 C.3     1  ZINC000482187991    0.1500
     14 H14       -13.5560   -0.6033   50.5981 H       1  ZINC000482187991    0.1300
     15 C15       -13.2040    1.5015   50.6094 C.ar    1  ZINC000482187991   -0.1100
     16 C16       -12.7126    2.5544   51.3582 C.ar    1  ZINC000482187991   -0.1000
     17 C17       -12.3080    3.7184   50.7320 C.ar    1  ZINC000482187991   -0.1200
     18 C18       -12.3943    3.8294   49.3568 C.ar    1  ZINC000482187991   -0.1100
     19 C19       -12.8848    2.7761   48.6078 C.ar    1  ZINC000482187991   -0.1200
     20 C20       -13.2855    1.6105   49.2337 C.ar    1  ZINC000482187991   -0.1000
     21 C21       -15.1023    0.3728   51.7371 C.3     1  ZINC000482187991    0.2500
     22 F22       -15.2158    1.4428   52.6312 F       1  ZINC000482187991   -0.1900
     23 F23       -15.9102    0.6108   50.6201 F       1  ZINC000482187991   -0.2000
     24 C24       -10.8397   -1.2939   57.8650 C.ar    1  ZINC000482187991   -0.1900
     25 C25        -9.9752   -1.4159   58.9353 C.ar    1  ZINC000482187991    0.1400
     26 O26       -10.1867   -2.3780   59.8730 O.3     1  ZINC000482187991   -0.3000
     27 C27       -11.4349   -2.3434   60.5678 C.3     1  ZINC000482187991    0.0200
     28 C28        -8.8834   -0.5583   59.0525 C.ar    1  ZINC000482187991    0.0600
     29 O29        -8.0351   -0.6816   60.1062 O.3     1  ZINC000482187991   -0.3100
     30 C30        -8.4343   -0.0713   61.3351 C.3     1  ZINC000482187991    0.0400
     31 H31        -6.9511    3.2154   58.4662 H       1  ZINC000482187991    0.1100
     32 H32        -8.4455    3.0211   57.5188 H       1  ZINC000482187991    0.0600
     33 H33        -8.4775    2.8064   59.2856 H       1  ZINC000482187991    0.0600
     34 H34        -9.3537    1.3255   56.2817 H       1  ZINC000482187991    0.1500
     35 H35       -11.1485   -2.1514   55.0677 H       1  ZINC000482187991    0.1100
     36 H36       -12.5678   -1.3719   54.3288 H       1  ZINC000482187991    0.1100
     37 H37       -10.1672    0.1781   53.7819 H       1  ZINC000482187991    0.1000
     38 H38        -9.9415   -1.5110   53.2677 H       1  ZINC000482187991    0.1000
     39 H39       -13.1365    0.1728   53.3527 H       1  ZINC000482187991    0.4100
     40 H40       -12.6451    2.4677   52.4327 H       1  ZINC000482187991    0.1200
     41 H41       -11.9247    4.5413   51.3171 H       1  ZINC000482187991    0.1300
     42 H42       -12.0788    4.7391   48.8675 H       1  ZINC000482187991    0.1300
     43 H43       -12.9526    2.8630   47.5335 H       1  ZINC000482187991    0.1300
     44 H44       -13.6687    0.7877   48.6485 H       1  ZINC000482187991    0.1300
     45 H45       -15.4224   -0.5463   52.2278 H       1  ZINC000482187991    0.1200
     46 H46       -11.6836   -1.9614   57.7728 H       1  ZINC000482187991    0.1500
     47 H47       -11.5311   -1.3942   61.0952 H       1  ZINC000482187991    0.0600
     48 H48       -12.2516   -2.4463   59.8532 H       1  ZINC000482187991    0.0600
     49 H49       -11.4743   -3.1632   61.2852 H       1  ZINC000482187991    0.1100
     50 H50        -8.5602    1.0009   61.1844 H       1  ZINC000482187991    0.0500
     51 H51        -9.3780   -0.5048   61.6665 H       1  ZINC000482187991    0.0500
     52 H52        -7.6693   -0.2444   62.0921 H       1  ZINC000482187991    0.1000
@<TRIPOS>BOND
     1     1     2    1
     2     1    31    1
     3     1    32    1
     4     1    33    1
     5     2     3    1
     6     3    28   ar
     7     3     4   ar
     8     4     5   ar
     9     4    34    1
    10     5     6    1
    11     5    24   ar
    12     6     7    2
    13     6     8    1
    14     8     9    1
    15     8    35    1
    16     8    36    1
    17     9    10    1
    18     9    37    1
    19     9    38    1
    20    10    11    2
    21    10    12   am
    22    12    13    1
    23    12    39    1
    24    13    14    1
    25    13    15    1
    26    13    21    1
    27    15    20   ar
    28    15    16   ar
    29    16    17   ar
    30    16    40    1
    31    17    18   ar
    32    17    41    1
    33    18    19   ar
    34    18    42    1
    35    19    20   ar
    36    19    43    1
    37    20    44    1
    38    21    22    1
    39    21    23    1
    40    21    45    1
    41    24    25   ar
    42    24    46    1
    43    25    26    1
    44    25    28   ar
    45    26    27    1
    46    27    47    1
    47    27    48    1
    48    27    49    1
    49    28    29    1
    50    29    30    1
    51    30    50    1
    52    30    51    1
    53    30    52    1
@<TRIPOS>SUBSTRUCTURE
     1 ZINC000482187991        1 TEMP              0 ****  ****    0 ROOT


##########                                Name:    ZINC000175255939
##########                DOCK_Rotatable_Bonds:                   8
##########                         Heavy_Atoms:                  28
##########                    Molecular_Weight:             394.375
##########                DOCK_Rotatable_Bonds:                   8
##########                       Formal_Charge:          -0.0399999
##########                     HBond_Acceptors:                   9
##########                        HBond_Donors:                   1
##########                         Heavy_Atoms:                  28
##########                          Grid_Score:          -30.289890
##########                     Grid_vdw_energy:          -31.309937
##########                      Grid_es_energy:            1.020047
##########           Internal_energy_repulsive:            9.239017

@<TRIPOS>MOLECULE
ZINC000175255939
 48 50 1 0 0
SMALL
USER_CHARGES


@<TRIPOS>ATOM
      1 C1          1.2217    4.9177   43.4364 C.3     1  ZINC000175255939    0.0300
      2 O2          1.0558    3.5646   43.9364 O.3     1  ZINC000175255939   -0.3600
      3 C3          0.5775    3.4301   45.1834 C.2     1  ZINC000175255939    0.4600
      4 O4          0.3002    4.4103   45.8331 O.2     1  ZINC000175255939   -0.5000
      5 C5          0.3863    2.0565   45.7729 C.3     1  ZINC000175255939   -0.0800
      6 H6          0.0027    1.3825   45.0069 H       1  ZINC000175255939    0.1100
      7 C7          1.7277    1.5316   46.2888 C.3     1  ZINC000175255939   -0.1200
      8 C8          1.5335    0.1370   46.8873 C.3     1  ZINC000175255939   -0.1100
      9 C9          0.5364    0.2133   48.0452 C.3     1  ZINC000175255939   -0.1200
     10 C10        -0.8050    0.7381   47.5294 C.3     1  ZINC000175255939   -0.1000
     11 H11        -1.1886    0.0641   46.7634 H       1  ZINC000175255939    0.1100
     12 C12        -1.7872    0.8132   48.6699 C.2     1  ZINC000175255939    0.5100
     13 O13        -2.0606   -0.1854   49.3015 O.2     1  ZINC000175255939   -0.4800
     14 N14        -2.3616    1.9902   48.9880 N.am    1  ZINC000175255939   -0.6300
     15 C15        -3.2672    2.0591   50.0373 C.2     1  ZINC000175255939    0.2100
     16 C16        -4.5244    1.5335   50.0654 C.2     1  ZINC000175255939   -0.2600
     17 C17        -5.0111    1.8844   51.3514 C.2     1  ZINC000175255939    0.0900
     18 C18        -6.3438    1.5608   51.9181 C.ar    1  ZINC000175255939   -0.0500
     19 C19        -6.8066    2.2382   53.0447 C.ar    1  ZINC000175255939   -0.0600
     20 C20        -8.0454    1.9355   53.5691 C.ar    1  ZINC000175255939   -0.1300
     21 C21        -8.8314    0.9564   52.9761 C.ar    1  ZINC000175255939    0.1200
     22 O22       -10.0515    0.6602   53.4948 O.3     1  ZINC000175255939   -0.3200
     23 C23       -10.4090   -0.7216   53.5639 C.3     1  ZINC000175255939    0.4100
     24 F24       -10.7684   -1.0451   54.8767 F       1  ZINC000175255939   -0.2000
     25 F25       -11.4901   -0.9667   52.7105 F       1  ZINC000175255939   -0.2000
     26 C26        -8.3729    0.2800   51.8535 C.ar    1  ZINC000175255939   -0.1900
     27 C27        -7.1376    0.5830   51.3211 C.ar    1  ZINC000175255939   -0.0500
     28 N28        -4.0471    2.5522   51.9391 N.2     1  ZINC000175255939   -0.3600
     29 O29        -3.0753    2.6513   51.2269 O.3     1  ZINC000175255939    0.1200
     30 C30        -0.6109    2.1327   46.9309 C.3     1  ZINC000175255939   -0.0900
     31 H31         1.6145    4.8840   42.4202 H       1  ZINC000175255939    0.1000
     32 H32         0.2574    5.4260   43.4366 H       1  ZINC000175255939    0.0600
     33 H33         1.9178    5.4590   44.0772 H       1  ZINC000175255939    0.0600
     34 H34         2.4380    1.4773   45.4638 H       1  ZINC000175255939    0.0800
     35 H35         2.1112    2.2056   47.0548 H       1  ZINC000175255939    0.0700
     36 H36         1.1500   -0.5370   46.1213 H       1  ZINC000175255939    0.0700
     37 H37         2.4892   -0.2369   47.2547 H       1  ZINC000175255939    0.0800
     38 H38         0.3981   -0.7803   48.4717 H       1  ZINC000175255939    0.0700
     39 H39         0.9200    0.8872   48.8112 H       1  ZINC000175255939    0.0800
     40 H40        -2.1420    2.7891   48.4837 H       1  ZINC000175255939    0.4300
     41 H41        -5.0320    0.9795   49.2897 H       1  ZINC000175255939    0.1800
     42 H42        -6.1953    2.9993   53.5069 H       1  ZINC000175255939    0.1400
     43 H43        -8.4045    2.4600   54.4422 H       1  ZINC000175255939    0.1400
     44 H44        -9.5594   -1.3325   53.2588 H       1  ZINC000175255939    0.1900
     45 H45        -8.9864   -0.4810   51.3943 H       1  ZINC000175255939    0.1400
     46 H46        -6.7817    0.0568   50.4478 H       1  ZINC000175255939    0.1400
     47 H47        -0.2274    2.8066   47.6968 H       1  ZINC000175255939    0.0900
     48 H48        -1.5665    2.5066   46.5634 H       1  ZINC000175255939    0.0800
@<TRIPOS>BOND
     1     1     2    1
     2     1    31    1
     3     1    32    1
     4     1    33    1
     5     2     3    1
     6     3     4    2
     7     3     5    1
     8     5     6    1
     9     5    30    1
    10     5     7    1
    11     7     8    1
    12     7    34    1
    13     7    35    1
    14     8     9    1
    15     8    36    1
    16     8    37    1
    17     9    10    1
    18     9    38    1
    19     9    39    1
    20    10    11    1
    21    10    12    1
    22    10    30    1
    23    12    13    2
    24    12    14   am
    25    14    15    1
    26    14    40    1
    27    15    29    1
    28    15    16    2
    29    16    17    1
    30    16    41    1
    31    17    18    1
    32    17    28    2
    33    18    27   ar
    34    18    19   ar
    35    19    20   ar
    36    19    42    1
    37    20    21   ar
    38    20    43    1
    39    21    22    1
    40    21    26   ar
    41    22    23    1
    42    23    24    1
    43    23    25    1
    44    23    44    1
    45    26    27   ar
    46    26    45    1
    47    27    46    1
    48    28    29    1
    49    30    47    1
    50    30    48    1
@<TRIPOS>SUBSTRUCTURE
     1 ZINC000175255939        1 TEMP              0 ****  ****    0 ROOT


##########                                Name:    ZINC000846412382
##########                DOCK_Rotatable_Bonds:                   6
##########                         Heavy_Atoms:                  26
##########                    Molecular_Weight:             370.475
##########                DOCK_Rotatable_Bonds:                   6
##########                       Formal_Charge:               -0.03
##########                     HBond_Acceptors:                   7
##########                        HBond_Donors:                   4
##########                         Heavy_Atoms:                  26
##########                          Grid_Score:          -30.281567
##########                     Grid_vdw_energy:          -29.310266
##########                      Grid_es_energy:           -0.971299
##########           Internal_energy_repulsive:           13.960089

@<TRIPOS>MOLECULE
ZINC000846412382
 48 50 1 0 0
SMALL
USER_CHARGES


@<TRIPOS>ATOM
      1 C1         -2.8177    3.7981   51.8133 C.3     1  ZINC000846412382   -0.1400
      2 C2         -4.0302    2.9587   51.5033 C.2     1  ZINC000846412382    0.0300
      3 C3         -4.1328    2.2397   50.3784 C.2     1  ZINC000846412382   -0.2700
      4 C4         -3.1065    2.1775   49.3306 C.2     1  ZINC000846412382    0.6000
      5 O5         -3.3033    2.7090   48.2539 O.2     1  ZINC000846412382   -0.5200
      6 N6         -1.9462    1.5318   49.5613 N.am    1  ZINC000846412382   -0.7100
      7 C7         -0.9227    1.4682   48.5150 C.3     1  ZINC000846412382    0.1200
      8 H8         -1.4023    1.4819   47.5363 H       1  ZINC000846412382    0.1000
      9 C9          0.0118    2.6730   48.6419 C.3     1  ZINC000846412382   -0.1700
     10 C10        -0.1152    0.1779   48.6692 C.3     1  ZINC000846412382    0.1700
     11 C11        -1.0409   -1.0273   48.4921 C.3     1  ZINC000846412382   -0.1400
     12 O12         0.4752    0.1380   49.9700 O.3     1  ZINC000846412382   -0.5500
     13 C13         0.9695    0.1361   47.6237 C.ar    1  ZINC000846412382   -0.1200
     14 C14         2.2895   -0.0199   48.0032 C.ar    1  ZINC000846412382   -0.1100
     15 C15         3.2844   -0.0582   47.0442 C.ar    1  ZINC000846412382   -0.1200
     16 C16         2.9592    0.0588   45.7058 C.ar    1  ZINC000846412382   -0.1200
     17 C17         1.6390    0.2139   45.3263 C.ar    1  ZINC000846412382   -0.1200
     18 C18         0.6437    0.2480   46.2850 C.ar    1  ZINC000846412382   -0.1000
     19 S19        -5.6633    1.3815   50.3295 S.3     1  ZINC000846412382    0.2000
     20 C20        -6.1400    2.0421   51.8878 C.ar    1  ZINC000846412382    0.1400
     21 N21        -7.2480    1.8714   52.6178 N.ar    1  ZINC000846412382   -0.5300
     22 C22        -7.3965    2.4734   53.7757 C.ar    1  ZINC000846412382    0.3900
     23 C23        -8.6646    2.2458   54.5574 C.3     1  ZINC000846412382   -0.0900
     24 N24        -6.4715    3.2710   54.2780 N.ar    1  ZINC000846412382   -0.5800
     25 C25        -5.3393    3.5040   53.6317 C.ar    1  ZINC000846412382    0.5100
     26 N26        -4.3834    4.3405   54.1715 N.pl3   1  ZINC000846412382   -0.8300
     27 C27        -5.1216    2.8737   52.3740 C.ar    1  ZINC000846412382   -0.2500
     28 H28        -2.1310    3.2274   52.4385 H       1  ZINC000846412382    0.0800
     29 H29        -2.3193    4.0737   50.8840 H       1  ZINC000846412382    0.1100
     30 H30        -3.1259    4.7003   52.3418 H       1  ZINC000846412382    0.0700
     31 H31        -1.7888    1.1091   50.4201 H       1  ZINC000846412382    0.4000
     32 H32         0.4914    2.6592   49.6207 H       1  ZINC000846412382    0.0600
     33 H33         0.7733    2.6257   47.8635 H       1  ZINC000846412382    0.0800
     34 H34        -0.5635    3.5922   48.5321 H       1  ZINC000846412382    0.0700
     35 H35        -1.4912   -0.9969   47.4999 H       1  ZINC000846412382    0.0700
     36 H36        -0.4656   -1.9466   48.6020 H       1  ZINC000846412382    0.0700
     37 H37        -1.8254   -0.9971   49.2482 H       1  ZINC000846412382    0.0700
     38 H38         0.7749   -0.7413   50.2389 H       1  ZINC000846412382    0.3800
     39 H39         2.5436   -0.1113   49.0489 H       1  ZINC000846412382    0.1300
     40 H40         4.3158   -0.1793   47.3407 H       1  ZINC000846412382    0.1200
     41 H41         3.7365    0.0295   44.9567 H       1  ZINC000846412382    0.1200
     42 H42         1.3849    0.3056   44.2807 H       1  ZINC000846412382    0.1200
     43 H43        -0.3877    0.3691   45.9885 H       1  ZINC000846412382    0.1300
     44 H44        -8.5351    1.3890   55.2186 H       1  ZINC000846412382    0.0900
     45 H45        -8.8895    3.1320   55.1509 H       1  ZINC000846412382    0.0900
     46 H46        -9.4865    2.0520   53.8682 H       1  ZINC000846412382    0.0900
     47 H47        -4.6357    5.0000   54.8365 H       1  ZINC000846412382    0.4100
     48 H48        -3.4592    4.2687   53.8859 H       1  ZINC000846412382    0.4200
@<TRIPOS>BOND
     1     1     2    1
     2     1    28    1
     3     1    29    1
     4     1    30    1
     5     2    27    1
     6     2     3    2
     7     3     4    1
     8     3    19    1
     9     4     5    2
    10     4     6   am
    11     6     7    1
    12     6    31    1
    13     7     8    1
    14     7     9    1
    15     7    10    1
    16     9    32    1
    17     9    33    1
    18     9    34    1
    19    10    11    1
    20    10    12    1
    21    10    13    1
    22    11    35    1
    23    11    36    1
    24    11    37    1
    25    12    38    1
    26    13    18   ar
    27    13    14   ar
    28    14    15   ar
    29    14    39    1
    30    15    16   ar
    31    15    40    1
    32    16    17   ar
    33    16    41    1
    34    17    18   ar
    35    17    42    1
    36    18    43    1
    37    19    20    1
    38    20    27   ar
    39    20    21   ar
    40    21    22   ar
    41    22    23    1
    42    22    24   ar
    43    23    44    1
    44    23    45    1
    45    23    46    1
    46    24    25   ar
    47    25    26    1
    48    25    27   ar
    49    26    47    1
    50    26    48    1
@<TRIPOS>SUBSTRUCTURE
     1 ZINC000846412382        1 TEMP              0 ****  ****    0 ROOT


##########                                Name:    ZINC001356153960
##########                DOCK_Rotatable_Bonds:                   8
##########                         Heavy_Atoms:                  24
##########                    Molecular_Weight:             334.366
##########                DOCK_Rotatable_Bonds:                   8
##########                       Formal_Charge:           0.0100003
##########                     HBond_Acceptors:                   6
##########                        HBond_Donors:                   1
##########                         Heavy_Atoms:                  24
##########                          Grid_Score:          -30.280342
##########                     Grid_vdw_energy:          -29.138990
##########                      Grid_es_energy:           -1.141353
##########           Internal_energy_repulsive:           14.704728

@<TRIPOS>MOLECULE
ZINC001356153960
 44 46 1 0 0
SMALL
USER_CHARGES


@<TRIPOS>ATOM
      1 O1         -4.9505    2.6116   49.8014 O.2     1  ZINC001356153960   -0.5200
      2 C2         -4.1088    2.4223   50.6548 C.2     1  ZINC001356153960    0.5100
      3 N3         -4.4457    1.8172   51.8111 N.am    1  ZINC001356153960   -0.7000
      4 C4         -5.8267    1.3826   52.0350 C.3     1  ZINC001356153960    0.1300
      5 C5         -6.6886    2.5920   52.4031 C.3     1  ZINC001356153960   -0.0800
      6 H6         -6.7844    3.2630   51.5496 H       1  ZINC001356153960    0.0900
      7 C7         -8.0520    2.1426   52.8751 C.2     1  ZINC001356153960   -0.1700
      8 C8         -8.4145    2.7900   53.9489 C.2     1  ZINC001356153960   -0.1600
      9 C9         -7.3535    3.7792   54.3721 C.3     1  ZINC001356153960   -0.1000
     10 C10        -6.0787    3.3406   53.6109 C.3     1  ZINC001356153960   -0.1200
     11 C11        -2.7000    2.8655   50.4264 C.2     1  ZINC001356153960    0.5100
     12 O12        -2.3146    3.9217   50.8832 O.2     1  ZINC001356153960   -0.5100
     13 N13        -1.8575    2.0923   49.7130 N.am    1  ZINC001356153960   -0.5500
     14 C14        -2.3228    0.8174   49.1615 C.3     1  ZINC001356153960    0.1300
     15 C15        -1.6264    0.5526   47.8516 C.ar    1  ZINC001356153960   -0.1600
     16 C16        -1.6108    1.5240   46.8689 C.ar    1  ZINC001356153960   -0.0300
     17 C17        -0.9675    1.2846   45.6691 C.ar    1  ZINC001356153960   -0.1700
     18 C18        -0.3477    0.0668   45.4462 C.ar    1  ZINC001356153960    0.1400
     19 F19         0.2765   -0.1689   44.2714 F       1  ZINC001356153960   -0.1300
     20 C20        -0.3676   -0.9093   46.4278 C.ar    1  ZINC001356153960   -0.2000
     21 C21        -1.0071   -0.6664   47.6309 C.ar    1  ZINC001356153960    0.1500
     22 F22        -1.0275   -1.6181   48.5895 F       1  ZINC001356153960   -0.1200
     23 C23        -0.4765    2.5269   49.4889 C.3     1  ZINC001356153960    0.0700
     24 C24         0.6383    1.5268   49.8018 C.3     1  ZINC001356153960   -0.1900
     25 C25         0.4089    2.7299   50.7201 C.3     1  ZINC001356153960   -0.1800
     26 H26        -3.7739    1.6694   52.4949 H       1  ZINC001356153960    0.4100
     27 H27        -6.2150    0.9229   51.1261 H       1  ZINC001356153960    0.0800
     28 H28        -5.8521    0.6573   52.8484 H       1  ZINC001356153960    0.0800
     29 H29        -8.6479    1.3850   52.3881 H       1  ZINC001356153960    0.1200
     30 H30        -9.3498    2.6385   54.4671 H       1  ZINC001356153960    0.1300
     31 H31        -7.6388    4.7900   54.0808 H       1  ZINC001356153960    0.0800
     32 H32        -7.1929    3.7262   55.4490 H       1  ZINC001356153960    0.0700
     33 H33        -5.4707    2.6713   54.2197 H       1  ZINC001356153960    0.0800
     34 H34        -5.4994    4.2042   53.2841 H       1  ZINC001356153960    0.0800
     35 H35        -2.0962    0.0140   49.8623 H       1  ZINC001356153960    0.0900
     36 H36        -3.3995    0.8638   48.9976 H       1  ZINC001356153960    0.1400
     37 H37        -2.0981    2.4725   47.0400 H       1  ZINC001356153960    0.1600
     38 H38        -0.9525    2.0460   44.9033 H       1  ZINC001356153960    0.1400
     39 H39         0.1153   -1.8596   46.2548 H       1  ZINC001356153960    0.1500
     40 H40        -0.3265    3.1998   48.6446 H       1  ZINC001356153960    0.1400
     41 H41         0.3443    0.5456   50.1745 H       1  ZINC001356153960    0.1400
     42 H42         1.5218    1.5422   49.1637 H       1  ZINC001356153960    0.0900
     43 H43         1.1415    3.5362   50.6856 H       1  ZINC001356153960    0.1000
     44 H44        -0.0363    2.5402   51.6968 H       1  ZINC001356153960    0.0900
@<TRIPOS>BOND
     1     1     2    2
     2     2     3   am
     3     2    11    1
     4     3     4    1
     5     3    26    1
     6     4     5    1
     7     4    27    1
     8     4    28    1
     9     5     6    1
    10     5    10    1
    11     5     7    1
    12     7     8    2
    13     7    29    1
    14     8     9    1
    15     8    30    1
    16     9    10    1
    17     9    31    1
    18     9    32    1
    19    10    33    1
    20    10    34    1
    21    11    12    2
    22    11    13   am
    23    13    14    1
    24    13    23    1
    25    14    15    1
    26    14    35    1
    27    14    36    1
    28    15    21   ar
    29    15    16   ar
    30    16    17   ar
    31    16    37    1
    32    17    18   ar
    33    17    38    1
    34    18    19    1
    35    18    20   ar
    36    20    21   ar
    37    20    39    1
    38    21    22    1
    39    23    25    1
    40    23    24    1
    41    23    40    1
    42    24    25    1
    43    24    41    1
    44    24    42    1
    45    25    43    1
    46    25    44    1
@<TRIPOS>SUBSTRUCTURE
     1 ZINC001356153960        1 TEMP              0 ****  ****    0 ROOT


##########                                Name:    ZINC000805177769
##########                DOCK_Rotatable_Bonds:                  10
##########                         Heavy_Atoms:                  30
##########                    Molecular_Weight:             417.548
##########                DOCK_Rotatable_Bonds:                  10
##########                       Formal_Charge:           0.0199995
##########                     HBond_Acceptors:                   7
##########                        HBond_Donors:                   1
##########                         Heavy_Atoms:                  30
##########                          Grid_Score:          -30.268625
##########                     Grid_vdw_energy:          -29.653448
##########                      Grid_es_energy:           -0.615177
##########           Internal_energy_repulsive:           46.809704

@<TRIPOS>MOLECULE
ZINC000805177769
 65 66 1 0 0
SMALL
USER_CHARGES


@<TRIPOS>ATOM
      1 C1         -8.2674    0.5441   59.3419 C.3     1  ZINC000805177769   -0.1200
      2 C2         -9.5150   -0.1871   58.9176 C.ar    1  ZINC000805177769   -0.0800
      3 C3         -9.8151   -0.3202   57.5751 C.ar    1  ZINC000805177769   -0.1200
      4 C4        -10.9597   -0.9911   57.1858 C.ar    1  ZINC000805177769   -0.1100
      5 C5        -11.8035   -1.5288   58.1393 C.ar    1  ZINC000805177769   -0.0900
      6 C6        -13.0513   -2.2596   57.7150 C.3     1  ZINC000805177769   -0.0900
      7 C7        -14.1590   -1.2470   57.4174 C.3     1  ZINC000805177769    0.1500
      8 H8        -13.9030   -0.2864   57.8646 H       1  ZINC000805177769    0.1000
      9 C9        -15.4794   -1.7478   58.0061 C.3     1  ZINC000805177769   -0.1700
     10 N10       -14.2995   -1.0888   55.9678 N.am    1  ZINC000805177769   -0.6900
     11 C11       -14.9572   -0.0245   55.4665 C.2     1  ZINC000805177769    0.5100
     12 O12       -15.4344    0.8019   56.2161 O.2     1  ZINC000805177769   -0.5100
     13 C13       -15.0989    0.1377   53.9877 C.2     1  ZINC000805177769    0.5200
     14 O14       -16.2022    0.1688   53.4836 O.2     1  ZINC000805177769   -0.5200
     15 N15       -14.0011    0.2495   53.2139 N.am    1  ZINC000805177769   -0.5900
     16 C16       -13.9957    0.4131   51.7528 C.3     1  ZINC000805177769    0.1100
     17 C17       -12.5216    0.5247   51.3097 C.3     1  ZINC000805177769   -0.1500
     18 C18       -11.8032    0.9854   52.6055 C.3     1  ZINC000805177769    0.1500
     19 H19       -11.8881    2.0641   52.7369 H       1  ZINC000805177769    0.1200
     20 N20       -10.3988    0.5683   52.6038 N.am    1  ZINC000805177769   -0.5900
     21 C21       -10.0457   -0.8146   52.2735 C.3     1  ZINC000805177769    0.0800
     22 C22        -9.4316    1.4568   52.9065 C.2     1  ZINC000805177769    0.6600
     23 O23        -9.7243    2.6042   53.1790 O.2     1  ZINC000805177769   -0.5600
     24 O24        -8.1411    1.0730   52.9065 O.3     1  ZINC000805177769   -0.3600
     25 C25        -7.1421    2.1200   52.7863 C.3     1  ZINC000805177769    0.1400
     26 C26        -7.1323    2.9645   54.0621 C.3     1  ZINC000805177769   -0.1800
     27 C27        -5.7636    1.4884   52.5822 C.3     1  ZINC000805177769   -0.1400
     28 C28        -7.4778    3.0100   51.5881 C.3     1  ZINC000805177769   -0.1800
     29 C29       -12.6070    0.2343   53.6930 C.3     1  ZINC000805177769    0.0900
     30 C30       -11.5025   -1.3969   59.4822 C.ar    1  ZINC000805177769   -0.0800
     31 C31       -12.4223   -1.9837   60.5218 C.3     1  ZINC000805177769   -0.1200
     32 C32       -10.3563   -0.7296   59.8712 C.ar    1  ZINC000805177769   -0.1200
     33 H33        -7.4384   -0.1605   59.4091 H       1  ZINC000805177769    0.0700
     34 H34        -8.0306    1.3147   58.6082 H       1  ZINC000805177769    0.0700
     35 H35        -8.4307    1.0069   60.3152 H       1  ZINC000805177769    0.0700
     36 H36        -9.1558    0.1000   56.8301 H       1  ZINC000805177769    0.1200
     37 H37       -11.1946   -1.0944   56.1368 H       1  ZINC000805177769    0.1200
     38 H38       -12.8432   -2.8441   56.8189 H       1  ZINC000805177769    0.0800
     39 H39       -13.3730   -2.9249   58.5163 H       1  ZINC000805177769    0.0900
     40 H40       -15.7355   -2.7083   57.5590 H       1  ZINC000805177769    0.0600
     41 H41       -15.3749   -1.8654   59.0847 H       1  ZINC000805177769    0.0700
     42 H42       -16.2686   -1.0263   57.7942 H       1  ZINC000805177769    0.0600
     43 H43       -13.9191   -1.7500   55.3686 H       1  ZINC000805177769    0.4100
     44 H44       -14.4599   -0.4530   51.2810 H       1  ZINC000805177769    0.0900
     45 H45       -14.5347    1.3201   51.4794 H       1  ZINC000805177769    0.0900
     46 H46       -12.1430   -0.4435   50.9822 H       1  ZINC000805177769    0.0900
     47 H47       -12.4111    1.2698   50.5218 H       1  ZINC000805177769    0.0900
     48 H48        -9.8832   -0.9014   51.1992 H       1  ZINC000805177769    0.0600
     49 H49        -9.1344   -1.0932   52.8025 H       1  ZINC000805177769    0.0800
     50 H50       -10.8571   -1.4782   52.5730 H       1  ZINC000805177769    0.0800
     51 H51        -6.8932    2.3304   54.9158 H       1  ZINC000805177769    0.0600
     52 H52        -6.3824    3.7504   53.9719 H       1  ZINC000805177769    0.0700
     53 H53        -8.1144    3.4144   54.2076 H       1  ZINC000805177769    0.0900
     54 H54        -5.7706    0.8867   51.6733 H       1  ZINC000805177769    0.0700
     55 H55        -5.0137    2.2742   52.4920 H       1  ZINC000805177769    0.0800
     56 H56        -5.5244    0.8542   53.4360 H       1  ZINC000805177769    0.0700
     57 H57        -8.4598    3.4600   51.7335 H       1  ZINC000805177769    0.0900
     58 H58        -6.7279    3.7958   51.4978 H       1  ZINC000805177769    0.0700
     59 H59        -7.4848    2.4083   50.6792 H       1  ZINC000805177769    0.0600
     60 H60       -12.5253    0.7505   54.6494 H       1  ZINC000805177769    0.0900
     61 H61       -12.2539   -0.7930   53.7841 H       1  ZINC000805177769    0.0800
     62 H62       -12.1170   -3.0069   60.7409 H       1  ZINC000805177769    0.0700
     63 H63       -12.3702   -1.3861   61.4319 H       1  ZINC000805177769    0.0700
     64 H64       -13.4449   -1.9825   60.1444 H       1  ZINC000805177769    0.0700
     65 H65       -10.1212   -0.6264   60.9202 H       1  ZINC000805177769    0.1200
@<TRIPOS>BOND
     1     1     2    1
     2     1    33    1
     3     1    34    1
     4     1    35    1
     5     2    32   ar
     6     2     3   ar
     7     3     4   ar
     8     3    36    1
     9     4     5   ar
    10     4    37    1
    11     5     6    1
    12     5    30   ar
    13     6     7    1
    14     6    38    1
    15     6    39    1
    16     7     8    1
    17     7     9    1
    18     7    10    1
    19     9    40    1
    20     9    41    1
    21     9    42    1
    22    10    11   am
    23    10    43    1
    24    11    12    2
    25    11    13    1
    26    13    14    2
    27    13    15   am
    28    15    29    1
    29    15    16    1
    30    16    17    1
    31    16    44    1
    32    16    45    1
    33    17    18    1
    34    17    46    1
    35    17    47    1
    36    18    19    1
    37    18    20    1
    38    18    29    1
    39    20    21    1
    40    20    22   am
    41    21    48    1
    42    21    49    1
    43    21    50    1
    44    22    23    2
    45    22    24    1
    46    24    25    1
    47    25    26    1
    48    25    27    1
    49    25    28    1
    50    26    51    1
    51    26    52    1
    52    26    53    1
    53    27    54    1
    54    27    55    1
    55    27    56    1
    56    28    57    1
    57    28    58    1
    58    28    59    1
    59    29    60    1
    60    29    61    1
    61    30    31    1
    62    30    32   ar
    63    31    62    1
    64    31    63    1
    65    31    64    1
    66    32    65    1
@<TRIPOS>SUBSTRUCTURE
     1 ZINC000805177769        1 TEMP              0 ****  ****    0 ROOT


##########                                Name:    ZINC000502834785
##########                DOCK_Rotatable_Bonds:                   9
##########                         Heavy_Atoms:                  26
##########                    Molecular_Weight:             356.468
##########                DOCK_Rotatable_Bonds:                   9
##########                       Formal_Charge:           0.0199998
##########                     HBond_Acceptors:                   6
##########                        HBond_Donors:                   2
##########                         Heavy_Atoms:                  26
##########                          Grid_Score:          -30.223122
##########                     Grid_vdw_energy:          -29.279028
##########                      Grid_es_energy:           -0.944093
##########           Internal_energy_repulsive:          150.591904

@<TRIPOS>MOLECULE
ZINC000502834785
 54 56 1 0 0
SMALL
USER_CHARGES


@<TRIPOS>ATOM
      1 C1         -6.2928    2.7842   50.7836 C.3     1  ZINC000502834785   -0.1800
      2 C2         -5.4990    1.5331   51.1653 C.3     1  ZINC000502834785    0.0800
      3 C3         -6.4659    0.3792   51.4384 C.3     1  ZINC000502834785   -0.1500
      4 O4         -4.6246    1.1781   50.0922 O.3     1  ZINC000502834785   -0.3800
      5 C5         -3.3606    1.8438   50.1280 C.3     1  ZINC000502834785    0.1000
      6 C6         -2.5320    1.4124   48.9455 C.ar    1  ZINC000502834785   -0.0800
      7 C7         -2.5374    2.1654   47.7863 C.ar    1  ZINC000502834785   -0.1000
      8 C8         -1.7773    1.7697   46.7016 C.ar    1  ZINC000502834785   -0.1000
      9 C9         -1.0116    0.6213   46.7763 C.ar    1  ZINC000502834785   -0.1000
     10 C10        -0.1833    0.1896   45.5934 C.3     1  ZINC000502834785    0.1600
     11 N11         1.2382    0.2641   45.9395 N.am    1  ZINC000502834785   -0.7300
     12 C12         2.1722    0.1955   44.9703 C.2     1  ZINC000502834785    0.5100
     13 O13         1.8358    0.0734   43.8115 O.2     1  ZINC000502834785   -0.5200
     14 C14         3.6346    0.2703   45.3265 C.3     1  ZINC000502834785    0.0300
     15 N15         3.7782    0.7491   46.7079 N.3     1  ZINC000502834785   -0.5000
     16 C16         3.1021   -0.1608   47.6570 C.3     1  ZINC000502834785    0.0500
     17 C17         2.5705    0.7635   48.7807 C.3     1  ZINC000502834785   -0.1300
     18 C18         2.1407    2.0188   47.9767 C.3     1  ZINC000502834785   -0.1300
     19 C19         3.2046    2.0986   46.8617 C.3     1  ZINC000502834785    0.1500
     20 H20         3.9861    2.8038   47.1447 H       1  ZINC000502834785    0.1100
     21 C21         2.5623    2.5365   45.5707 C.2     1  ZINC000502834785    0.0600
     22 N22         3.1759    2.7073   44.4278 N.2     1  ZINC000502834785   -0.2900
     23 N23         2.2292    3.1156   43.4795 N.pl3   1  ZINC000502834785   -0.4800
     24 C24         1.0292    3.1832   44.0930 C.2     1  ZINC000502834785    0.0600
     25 C25         1.2061    2.8247   45.3858 C.2     1  ZINC000502834785   -0.2600
     26 C26        -1.0052   -0.1310   47.9359 C.ar    1  ZINC000502834785   -0.1000
     27 C27        -1.7622    0.2668   49.0220 C.ar    1  ZINC000502834785   -0.1000
     28 H28        -5.6040    3.6062   50.5891 H       1  ZINC000502834785    0.0600
     29 H29        -6.8802    2.5826   49.8878 H       1  ZINC000502834785    0.0600
     30 H30        -6.9599    3.0550   51.6021 H       1  ZINC000502834785    0.0700
     31 H31        -4.9117    1.7347   52.0611 H       1  ZINC000502834785    0.0600
     32 H32        -7.0532    0.1776   50.5426 H       1  ZINC000502834785    0.0600
     33 H33        -5.9004   -0.5120   51.7103 H       1  ZINC000502834785    0.0600
     34 H34        -7.1328    0.6500   52.2569 H       1  ZINC000502834785    0.0700
     35 H35        -3.5164    2.9219   50.0886 H       1  ZINC000502834785    0.0600
     36 H36        -2.8399    1.5855   51.0502 H       1  ZINC000502834785    0.0600
     37 H37        -3.1357    3.0627   47.7279 H       1  ZINC000502834785    0.1300
     38 H38        -1.7821    2.3576   45.7956 H       1  ZINC000502834785    0.1300
     39 H39        -0.4389   -0.8357   45.3258 H       1  ZINC000502834785    0.0800
     40 H40        -0.3865    0.8472   44.7483 H       1  ZINC000502834785    0.0800
     41 H41         1.5073    0.3629   46.8663 H       1  ZINC000502834785    0.4000
     42 H42         4.0815   -0.7198   45.2369 H       1  ZINC000502834785    0.1000
     43 H43         4.1388    0.9593   44.6490 H       1  ZINC000502834785    0.0800
     44 H44         2.2760   -0.6754   47.1663 H       1  ZINC000502834785    0.0400
     45 H45         3.8120   -0.8816   48.0628 H       1  ZINC000502834785    0.1000
     46 H46         1.7166    0.3123   49.2861 H       1  ZINC000502834785    0.0800
     47 H47         3.3595    1.0069   49.4922 H       1  ZINC000502834785    0.0800
     48 H48         1.1463    1.8823   47.5516 H       1  ZINC000502834785    0.0800
     49 H49         2.1735    2.9088   48.6051 H       1  ZINC000502834785    0.0800
     50 H50         2.4051    3.3145   42.5465 H       1  ZINC000502834785    0.4400
     51 H51         0.0943    3.4682   43.6335 H       1  ZINC000502834785    0.1800
     52 H52         0.4372    2.7758   46.1426 H       1  ZINC000502834785    0.1500
     53 H53        -0.4066   -1.0281   47.9944 H       1  ZINC000502834785    0.1300
     54 H54        -1.7572   -0.3209   49.9281 H       1  ZINC000502834785    0.1200
@<TRIPOS>BOND
     1     1     2    1
     2     1    28    1
     3     1    29    1
     4     1    30    1
     5     2     3    1
     6     2     4    1
     7     2    31    1
     8     3    32    1
     9     3    33    1
    10     3    34    1
    11     4     5    1
    12     5     6    1
    13     5    35    1
    14     5    36    1
    15     6    27   ar
    16     6     7   ar
    17     7     8   ar
    18     7    37    1
    19     8     9   ar
    20     8    38    1
    21     9    10    1
    22     9    26   ar
    23    10    11    1
    24    10    39    1
    25    10    40    1
    26    11    12   am
    27    11    41    1
    28    12    13    2
    29    12    14    1
    30    14    15    1
    31    14    42    1
    32    14    43    1
    33    15    19    1
    34    15    16    1
    35    16    17    1
    36    16    44    1
    37    16    45    1
    38    17    18    1
    39    17    46    1
    40    17    47    1
    41    18    19    1
    42    18    48    1
    43    18    49    1
    44    19    20    1
    45    19    21    1
    46    21    25    1
    47    21    22    2
    48    22    23    1
    49    23    24    1
    50    23    50    1
    51    24    25    2
    52    24    51    1
    53    25    52    1
    54    26    27   ar
    55    26    53    1
    56    27    54    1
@<TRIPOS>SUBSTRUCTURE
     1 ZINC000502834785        1 TEMP              0 ****  ****    0 ROOT


##########                                Name:    ZINC000995593866
##########                DOCK_Rotatable_Bonds:                   7
##########                         Heavy_Atoms:                  24
##########                    Molecular_Weight:             342.389
##########                DOCK_Rotatable_Bonds:                   7
##########                       Formal_Charge:                0.03
##########                     HBond_Acceptors:                   8
##########                        HBond_Donors:                   1
##########                         Heavy_Atoms:                  24
##########                          Grid_Score:          -30.221813
##########                     Grid_vdw_energy:          -29.698210
##########                      Grid_es_energy:           -0.523604
##########           Internal_energy_repulsive:           11.068134

@<TRIPOS>MOLECULE
ZINC000995593866
 48 50 1 0 0
SMALL
USER_CHARGES


@<TRIPOS>ATOM
      1 C1          0.5285    3.2818   48.0083 C.3     1  ZINC000995593866   -0.1400
      2 C2          0.2834    1.8746   48.5566 C.3     1  ZINC000995593866   -0.0800
      3 C3          1.6015    1.1031   48.6475 C.3     1  ZINC000995593866   -0.1400
      4 C4         -0.3943    1.9488   49.9419 C.3     1  ZINC000995593866    0.1200
      5 N5         -1.8424    1.8212   49.6568 N.am    1  ZINC000995593866   -0.6300
      6 C6         -2.8613    2.4832   50.2402 C.2     1  ZINC000995593866    0.5400
      7 O7         -2.6364    3.2952   51.1126 O.2     1  ZINC000995593866   -0.5300
      8 C8         -4.2798    2.2144   49.8085 C.3     1  ZINC000995593866   -0.1300
      9 C9         -5.2459    2.9104   50.7693 C.3     1  ZINC000995593866   -0.1000
     10 C10        -6.7080    2.4631   50.6041 C.3     1  ZINC000995593866   -0.1300
     11 C11        -6.8111    2.5028   52.1379 C.3     1  ZINC000995593866   -0.1400
     12 C12        -5.2910    2.2718   52.1675 C.3     1  ZINC000995593866   -0.1400
     13 C13        -1.9167    0.8010   48.5854 C.3     1  ZINC000995593866    0.1100
     14 C14        -0.7204    1.1178   47.6621 C.3     1  ZINC000995593866    0.0800
     15 H15        -1.0389    1.7485   46.8322 H       1  ZINC000995593866    0.0700
     16 N16        -0.1217   -0.1251   47.1574 N.3     1  ZINC000995593866   -0.6800
     17 C17        -0.4063   -0.3036   45.7273 C.3     1  ZINC000995593866    0.1500
     18 C18         0.4727    0.6176   44.9214 C.2     1  ZINC000995593866    0.1900
     19 N19         0.1854    1.8407   44.5458 N.2     1  ZINC000995593866   -0.4300
     20 C20         1.2571    2.2685   43.8548 C.2     1  ZINC000995593866    0.0900
     21 C21         1.4210    3.6207   43.2101 C.3     1  ZINC000995593866    0.3800
     22 F22         0.1607    4.1622   42.9355 F       1  ZINC000995593866   -0.1800
     23 F23         2.1144    4.4704   44.0787 F       1  ZINC000995593866   -0.1700
     24 N24         2.1253    1.3017   43.8456 N.2     1  ZINC000995593866   -0.3400
     25 O25         1.6965    0.3464   44.4579 O.3     1  ZINC000995593866    0.1000
     26 H26        -0.4123    3.8318   47.9855 H       1  ZINC000995593866    0.0600
     27 H27         1.2388    3.8031   48.6500 H       1  ZINC000995593866    0.0600
     28 H28         0.9336    3.2129   46.9988 H       1  ZINC000995593866    0.0600
     29 H29         2.2902    1.6365   49.3028 H       1  ZINC000995593866    0.0700
     30 H30         1.4132    0.1082   49.0509 H       1  ZINC000995593866    0.0700
     31 H31         2.0403    1.0152   47.6536 H       1  ZINC000995593866    0.0600
     32 H32        -0.0575    1.1273   50.5742 H       1  ZINC000995593866    0.0800
     33 H33        -0.1834    2.9067   50.4172 H       1  ZINC000995593866    0.0900
     34 H34        -4.4314    2.5981   48.7996 H       1  ZINC000995593866    0.0900
     35 H35        -4.4661    1.1405   49.8206 H       1  ZINC000995593866    0.0900
     36 H36        -5.1184    3.9927   50.7875 H       1  ZINC000995593866    0.1000
     37 H37        -7.3365    3.2008   50.1051 H       1  ZINC000995593866    0.0700
     38 H38        -6.8138    1.4625   50.1851 H       1  ZINC000995593866    0.0800
     39 H39        -7.1129    3.4739   52.5303 H       1  ZINC000995593866    0.0800
     40 H40        -7.3863    1.6779   52.5584 H       1  ZINC000995593866    0.0700
     41 H41        -5.0095    1.2188   52.1760 H       1  ZINC000995593866    0.0800
     42 H42        -4.7756    2.8549   52.9307 H       1  ZINC000995593866    0.0700
     43 H43        -1.8177   -0.1997   49.0058 H       1  ZINC000995593866    0.0900
     44 H44        -2.8544    0.8929   48.0373 H       1  ZINC000995593866    0.0800
     45 H45         0.8714   -0.1458   47.3338 H       1  ZINC000995593866    0.3600
     46 H46        -0.2068   -1.3368   45.4432 H       1  ZINC000995593866    0.1200
     47 H47        -1.4529   -0.0690   45.5332 H       1  ZINC000995593866    0.0800
     48 H48         1.9813    3.5149   42.2812 H       1  ZINC000995593866    0.1500
@<TRIPOS>BOND
     1     1     2    1
     2     1    26    1
     3     1    27    1
     4     1    28    1
     5     2    14    1
     6     2     3    1
     7     2     4    1
     8     3    29    1
     9     3    30    1
    10     3    31    1
    11     4     5    1
    12     4    32    1
    13     4    33    1
    14     5     6   am
    15     5    13    1
    16     6     7    2
    17     6     8    1
    18     8     9    1
    19     8    34    1
    20     8    35    1
    21     9    12    1
    22     9    10    1
    23     9    36    1
    24    10    11    1
    25    10    37    1
    26    10    38    1
    27    11    12    1
    28    11    39    1
    29    11    40    1
    30    12    41    1
    31    12    42    1
    32    13    14    1
    33    13    43    1
    34    13    44    1
    35    14    15    1
    36    14    16    1
    37    16    17    1
    38    16    45    1
    39    17    18    1
    40    17    46    1
    41    17    47    1
    42    18    25    1
    43    18    19    2
    44    19    20    1
    45    20    21    1
    46    20    24    2
    47    21    22    1
    48    21    23    1
    49    21    48    1
    50    24    25    1
@<TRIPOS>SUBSTRUCTURE
     1 ZINC000995593866        1 TEMP              0 ****  ****    0 ROOT


##########                                Name:    ZINC000876376999
##########                DOCK_Rotatable_Bonds:                   7
##########                         Heavy_Atoms:                  24
##########                    Molecular_Weight:             358.502
##########                DOCK_Rotatable_Bonds:                   7
##########                       Formal_Charge:          -0.0299994
##########                     HBond_Acceptors:                   7
##########                        HBond_Donors:                   2
##########                         Heavy_Atoms:                  24
##########                          Grid_Score:          -30.194876
##########                     Grid_vdw_energy:          -29.855846
##########                      Grid_es_energy:           -0.339029
##########           Internal_energy_repulsive:           34.350674

@<TRIPOS>MOLECULE
ZINC000876376999
 54 56 1 0 0
SMALL
USER_CHARGES


@<TRIPOS>ATOM
      1 C1         -8.2661    2.7068   52.2961 C.3     1  ZINC000876376999   -0.1500
      2 C2         -6.9853    1.8944   52.0952 C.3     1  ZINC000876376999   -0.1100
      3 C3         -5.8384    2.8349   51.7201 C.3     1  ZINC000876376999   -0.0700
      4 C4         -6.1863    3.5739   50.4263 C.3     1  ZINC000876376999    0.0900
      5 O5         -6.5852    2.6295   49.4309 O.3     1  ZINC000876376999   -0.5600
      6 C6         -5.6204    3.8490   52.8454 C.3     1  ZINC000876376999   -0.1100
      7 C7         -4.4952    4.8109   52.4569 C.3     1  ZINC000876376999   -0.1400
      8 C8         -3.1978    4.0200   52.2607 C.3     1  ZINC000876376999    0.1100
      9 N9         -3.4400    2.9489   51.2846 N.am    1  ZINC000876376999   -0.6300
     10 C10        -2.6530    2.8189   50.1983 C.2     1  ZINC000876376999    0.7100
     11 O11        -1.7322    3.5922   50.0184 O.2     1  ZINC000876376999   -0.5800
     12 N12        -2.8868    1.8315   49.3111 N.am    1  ZINC000876376999   -0.7500
     13 C13        -2.0314    1.6901   48.1303 C.3     1  ZINC000876376999    0.1400
     14 C14        -0.6955    1.0579   48.5395 C.3     1  ZINC000876376999   -0.1100
     15 C15        -0.6236   -0.3684   48.0662 C.3     1  ZINC000876376999   -0.1100
     16 C16         0.1640   -0.6075   46.7728 C.3     1  ZINC000876376999   -0.5200
     17 H17         0.1684   -1.6571   46.4473 H       1  ZINC000876376999    0.1500
     18 C18        -0.3951    0.3570   45.7018 C.3     1  ZINC000876376999   -0.1200
     19 C19         0.2214    1.7453   45.8339 C.3     1  ZINC000876376999   -0.1200
     20 C20         1.2329    1.7992   47.0019 C.3     1  ZINC000876376999   -0.5300
     21 H21         2.0316    2.5379   46.8465 H       1  ZINC000876376999    0.1500
     22 C22         0.4363    2.0179   48.2934 C.3     1  ZINC000876376999   -0.1000
     23 S23         1.8510    0.0661   47.0745 S.o2    1  ZINC000876376999    2.3700
     24 O24         2.2771   -0.2486   48.3923 O.2     1  ZINC000876376999   -0.9300
     25 O25         2.6913   -0.2010   45.9605 O.2     1  ZINC000876376999   -0.9300
     26 C26        -4.5563    2.0218   51.5155 C.3     1  ZINC000876376999    0.1400
     27 H27        -8.1434    3.3734   53.1498 H       1  ZINC000876376999    0.0500
     28 H28        -8.4669    3.2957   51.4012 H       1  ZINC000876376999    0.0600
     29 H29        -9.1004    2.0300   52.4806 H       1  ZINC000876376999    0.0500
     30 H30        -6.7385    1.3708   53.0188 H       1  ZINC000876376999    0.0600
     31 H31        -7.1367    1.1692   51.2958 H       1  ZINC000876376999    0.0700
     32 H32        -7.0032    4.2706   50.6142 H       1  ZINC000876376999    0.0500
     33 H33        -5.3130    4.1240   50.0760 H       1  ZINC000876376999    0.0400
     34 H34        -6.9005    3.0323   48.6103 H       1  ZINC000876376999    0.3800
     35 H35        -6.5391    4.4122   53.0097 H       1  ZINC000876376999    0.0700
     36 H36        -5.3487    3.3229   53.7606 H       1  ZINC000876376999    0.0700
     37 H37        -4.7554    5.3190   51.5284 H       1  ZINC000876376999    0.0700
     38 H38        -4.3562    5.5470   53.2486 H       1  ZINC000876376999    0.0800
     39 H39        -2.4179    4.6842   51.8884 H       1  ZINC000876376999    0.0700
     40 H40        -2.8878    3.5852   53.2108 H       1  ZINC000876376999    0.0700
     41 H41        -3.6215    1.2146   49.4545 H       1  ZINC000876376999    0.3900
     42 H42        -2.5259    1.0523   47.3976 H       1  ZINC000876376999    0.0800
     43 H43        -1.8498    2.6722   47.6934 H       1  ZINC000876376999    0.0700
     44 H44        -0.7693    0.9838   49.6613 H       1  ZINC000876376999    0.0900
     45 H45        -0.1808   -0.9879   48.8656 H       1  ZINC000876376999    0.0900
     46 H46        -1.6495   -0.7521   47.9280 H       1  ZINC000876376999    0.0900
     47 H47        -0.1505   -0.0388   44.7113 H       1  ZINC000876376999    0.0800
     48 H48        -1.4759    0.4216   45.7875 H       1  ZINC000876376999    0.0900
     49 H49         0.7470    1.9820   44.9036 H       1  ZINC000876376999    0.0800
     50 H50        -0.5595    2.4851   45.9841 H       1  ZINC000876376999    0.0900
     51 H51         0.0383    3.0475   48.2898 H       1  ZINC000876376999    0.0900
     52 H52         1.1346    1.9730   49.1476 H       1  ZINC000876376999    0.0900
     53 H53        -4.3569    1.4241   52.4050 H       1  ZINC000876376999    0.0600
     54 H54        -4.6726    1.3674   50.6515 H       1  ZINC000876376999    0.1000
@<TRIPOS>BOND
     1     1     2    1
     2     1    27    1
     3     1    28    1
     4     1    29    1
     5     2     3    1
     6     2    30    1
     7     2    31    1
     8     3    26    1
     9     3     4    1
    10     3     6    1
    11     4     5    1
    12     4    32    1
    13     4    33    1
    14     5    34    1
    15     6     7    1
    16     6    35    1
    17     6    36    1
    18     7     8    1
    19     7    37    1
    20     7    38    1
    21     8     9    1
    22     8    39    1
    23     8    40    1
    24     9    10   am
    25     9    26    1
    26    10    11    2
    27    10    12   am
    28    12    13    1
    29    12    41    1
    30    13    14    1
    31    13    42    1
    32    13    43    1
    33    14    22    1
    34    14    15    1
    35    14    44    1
    36    15    16    1
    37    15    45    1
    38    15    46    1
    39    16    17    1
    40    16    23    1
    41    16    18    1
    42    18    19    1
    43    18    47    1
    44    18    48    1
    45    19    20    1
    46    19    49    1
    47    19    50    1
    48    20    21    1
    49    20    22    1
    50    20    23    1
    51    22    51    1
    52    22    52    1
    53    23    24    2
    54    23    25    2
    55    26    53    1
    56    26    54    1
@<TRIPOS>SUBSTRUCTURE
     1 ZINC000876376999        1 TEMP              0 ****  ****    0 ROOT


##########                                Name:    ZINC000482846390
##########                DOCK_Rotatable_Bonds:                   9
##########                         Heavy_Atoms:                  30
##########                    Molecular_Weight:             420.469
##########                DOCK_Rotatable_Bonds:                   9
##########                       Formal_Charge:          -0.0100011
##########                     HBond_Acceptors:                  11
##########                        HBond_Donors:                   2
##########                         Heavy_Atoms:                  30
##########                          Grid_Score:          -30.188808
##########                     Grid_vdw_energy:          -27.443029
##########                      Grid_es_energy:           -2.745779
##########           Internal_energy_repulsive:           27.943382

@<TRIPOS>MOLECULE
ZINC000482846390
 58 60 1 0 0
SMALL
USER_CHARGES


@<TRIPOS>ATOM
      1 C1          1.3522    1.4475   60.1225 C.3     1  ZINC000482846390   -0.1000
      2 C2          1.0094    2.1577   58.8384 C.2     1  ZINC000482846390    0.0900
      3 C3          0.7121    3.4713   58.7079 C.2     1  ZINC000482846390   -0.2700
      4 C4          0.4566    3.7227   57.3560 C.2     1  ZINC000482846390    0.0700
      5 C5          0.0863    5.0562   56.7597 C.3     1  ZINC000482846390   -0.0500
      6 C6         -1.4370    5.1947   56.7262 C.3     1  ZINC000482846390    0.1500
      7 H7         -1.7066    6.2505   56.7546 H       1  ZINC000482846390    0.1000
      8 C8         -2.0408    4.4814   57.9376 C.3     1  ZINC000482846390   -0.1700
      9 N9         -1.9553    4.5914   55.4959 N.am    1  ZINC000482846390   -0.6800
     10 C10        -1.9059    5.2768   54.3365 C.2     1  ZINC000482846390    0.5100
     11 O11        -1.4307    6.3930   54.3114 O.2     1  ZINC000482846390   -0.5200
     12 C12        -2.4362    4.6620   53.0818 C.2     1  ZINC000482846390    0.5100
     13 O13        -3.6058    4.7967   52.7874 O.2     1  ZINC000482846390   -0.5100
     14 N14        -1.6156    3.9580   52.2772 N.am    1  ZINC000482846390   -0.5900
     15 C15        -2.1220    3.3531   51.0372 C.3     1  ZINC000482846390    0.0500
     16 C16        -1.2658    3.8483   49.8651 C.3     1  ZINC000482846390    0.1000
     17 N17         0.1515    3.6722   50.2115 N.am    1  ZINC000482846390   -0.6000
     18 C18         0.9723    2.9690   49.4064 C.2     1  ZINC000482846390    0.5200
     19 O19         2.1408    2.8305   49.7030 O.2     1  ZINC000482846390   -0.5000
     20 C20         0.4435    2.3599   48.1483 C.2     1  ZINC000482846390    0.5200
     21 O21         0.4997    2.9772   47.1051 O.2     1  ZINC000482846390   -0.5000
     22 N22        -0.0958    1.1250   48.1723 N.am    1  ZINC000482846390   -0.6000
     23 C23        -0.6174    0.5022   46.9454 C.3     1  ZINC000482846390    0.0700
     24 C24        -0.0125   -0.9008   46.8206 C.3     1  ZINC000482846390    0.0500
     25 O25        -0.2304   -1.6174   48.0384 O.3     1  ZINC000482846390   -0.3700
     26 C26         0.4034   -1.0365   49.1806 C.3     1  ZINC000482846390    0.0500
     27 C27        -0.1750    0.3572   49.4252 C.3     1  ZINC000482846390    0.0700
     28 C28         0.6580    4.2771   51.4516 C.3     1  ZINC000482846390    0.0900
     29 C29        -0.1970    3.7866   52.6208 C.3     1  ZINC000482846390    0.0900
     30 N30         0.5954    2.6002   56.6982 N.2     1  ZINC000482846390   -0.2800
     31 N31         0.9494    1.5987   57.6115 N.pl3   1  ZINC000482846390   -0.4700
     32 H32         2.4291    1.4909   60.2854 H       1  ZINC000482846390    0.0800
     33 H33         0.8392    1.9316   60.9536 H       1  ZINC000482846390    0.0900
     34 H34         1.0363    0.4063   60.0574 H       1  ZINC000482846390    0.0700
     35 H35         0.6779    4.1973   59.5068 H       1  ZINC000482846390    0.1500
     36 H36         0.5105    5.8561   57.3668 H       1  ZINC000482846390    0.0900
     37 H37         0.4796    5.1224   55.7454 H       1  ZINC000482846390    0.1100
     38 H38        -1.6553    4.9303   58.8530 H       1  ZINC000482846390    0.0700
     39 H39        -3.1261    4.5801   57.9136 H       1  ZINC000482846390    0.0700
     40 H40        -1.7713    3.4257   57.9092 H       1  ZINC000482846390    0.0600
     41 H41        -2.3340    3.6986   55.5157 H       1  ZINC000482846390    0.4200
     42 H42        -2.0551    2.2673   51.1060 H       1  ZINC000482846390    0.0800
     43 H43        -3.1597    3.6491   50.8829 H       1  ZINC000482846390    0.1600
     44 H44        -1.4986    3.2689   48.9715 H       1  ZINC000482846390    0.1100
     45 H45        -1.4696    4.9035   49.6833 H       1  ZINC000482846390    0.0800
     46 H46        -1.7034    0.4299   47.0035 H       1  ZINC000482846390    0.0900
     47 H47        -0.3347    1.1021   46.0804 H       1  ZINC000482846390    0.0900
     48 H48        -0.4892   -1.4308   45.9961 H       1  ZINC000482846390    0.1100
     49 H49         1.0581   -0.8204   46.6321 H       1  ZINC000482846390    0.0600
     50 H50         0.2259   -1.6642   50.0538 H       1  ZINC000482846390    0.1100
     51 H51         1.4755   -0.9566   49.0007 H       1  ZINC000482846390    0.0600
     52 H52         0.3983    0.8613   50.2033 H       1  ZINC000482846390    0.1100
     53 H53        -1.2174    0.2733   49.7327 H       1  ZINC000482846390    0.0800
     54 H54         1.6956    3.9811   51.6057 H       1  ZINC000482846390    0.0900
     55 H55         0.5911    5.3629   51.3827 H       1  ZINC000482846390    0.0900
     56 H56         0.0368    4.3668   53.5136 H       1  ZINC000482846390    0.1100
     57 H57         0.0046    2.7313   52.8041 H       1  ZINC000482846390    0.0800
     58 H58         1.1161    0.6667   57.4003 H       1  ZINC000482846390    0.4400
@<TRIPOS>BOND
     1     1     2    1
     2     1    32    1
     3     1    33    1
     4     1    34    1
     5     2    31    1
     6     2     3    2
     7     3     4    1
     8     3    35    1
     9     4     5    1
    10     4    30    2
    11     5     6    1
    12     5    36    1
    13     5    37    1
    14     6     7    1
    15     6     8    1
    16     6     9    1
    17     8    38    1
    18     8    39    1
    19     8    40    1
    20     9    10   am
    21     9    41    1
    22    10    11    2
    23    10    12    1
    24    12    13    2
    25    12    14   am
    26    14    29    1
    27    14    15    1
    28    15    16    1
    29    15    42    1
    30    15    43    1
    31    16    17    1
    32    16    44    1
    33    16    45    1
    34    17    18   am
    35    17    28    1
    36    18    19    2
    37    18    20    1
    38    20    21    2
    39    20    22   am
    40    22    27    1
    41    22    23    1
    42    23    24    1
    43    23    46    1
    44    23    47    1
    45    24    25    1
    46    24    48    1
    47    24    49    1
    48    25    26    1
    49    26    27    1
    50    26    50    1
    51    26    51    1
    52    27    52    1
    53    27    53    1
    54    28    29    1
    55    28    54    1
    56    28    55    1
    57    29    56    1
    58    29    57    1
    59    30    31    1
    60    31    58    1
@<TRIPOS>SUBSTRUCTURE
     1 ZINC000482846390        1 TEMP              0 ****  ****    0 ROOT


##########                                Name:    ZINC000484424341
##########                DOCK_Rotatable_Bonds:                   7
##########                         Heavy_Atoms:                  26
##########                    Molecular_Weight:             359.425
##########                DOCK_Rotatable_Bonds:                   7
##########                       Formal_Charge:          -0.0100009
##########                     HBond_Acceptors:                   7
##########                        HBond_Donors:                   1
##########                         Heavy_Atoms:                  26
##########                          Grid_Score:          -30.179260
##########                     Grid_vdw_energy:          -29.102659
##########                      Grid_es_energy:           -1.076600
##########           Internal_energy_repulsive:           26.134556

@<TRIPOS>MOLECULE
ZINC000484424341
 51 53 1 0 0
SMALL
USER_CHARGES


@<TRIPOS>ATOM
      1 C1         -7.0465    4.8505   49.5900 C.3     1  ZINC000484424341    0.0300
      2 O2         -6.9915    3.9957   50.7337 O.3     1  ZINC000484424341   -0.3800
      3 C3         -6.3870    2.7256   50.4816 C.3     1  ZINC000484424341    0.1300
      4 H4         -6.6516    2.3901   49.4789 H       1  ZINC000484424341    0.0700
      5 C5         -6.8891    1.7089   51.5087 C.3     1  ZINC000484424341   -0.1700
      6 C6         -4.8893    2.8517   50.5902 C.ar    1  ZINC000484424341   -0.0700
      7 C7         -4.3352    3.8196   51.4076 C.ar    1  ZINC000484424341   -0.1000
      8 C8         -2.9610    3.9388   51.5103 C.ar    1  ZINC000484424341   -0.1000
      9 C9         -2.1376    3.0911   50.7963 C.ar    1  ZINC000484424341   -0.1100
     10 C10        -2.6910    2.1172   49.9740 C.ar    1  ZINC000484424341    0.1400
     11 N11        -1.8607    1.2574   49.2504 N.am    1  ZINC000484424341   -0.6400
     12 C12        -1.2020    1.7112   48.1657 C.2     1  ZINC000484424341    0.5100
     13 O13        -1.3298    2.8669   47.8175 O.2     1  ZINC000484424341   -0.4900
     14 C14        -0.3145    0.7921   47.3923 C.2     1  ZINC000484424341    0.5200
     15 O15        -0.1676   -0.3570   47.7545 O.2     1  ZINC000484424341   -0.5200
     16 N16         0.3232    1.2386   46.2921 N.am    1  ZINC000484424341   -0.5800
     17 C17         1.2220    0.4450   45.4413 C.3     1  ZINC000484424341    0.1100
     18 C18         1.6920    1.3609   44.2916 C.3     1  ZINC000484424341   -0.1500
     19 C19         0.5880    2.4500   44.2416 C.3     1  ZINC000484424341    0.1500
     20 H20        -0.2742    2.1063   43.6699 H       1  ZINC000484424341    0.1100
     21 N21         1.1116    3.7038   43.6938 N.am    1  ZINC000484424341   -0.6100
     22 C22         0.5169    4.4259   42.5630 C.3     1  ZINC000484424341    0.1000
     23 C23         1.1096    5.8509   42.6263 C.3     1  ZINC000484424341   -0.1300
     24 C24         2.4436    5.6049   43.3685 C.3     1  ZINC000484424341   -0.1600
     25 C25         2.1954    4.3436   44.1661 C.2     1  ZINC000484424341    0.5200
     26 O26         2.8790    3.9615   45.0921 O.2     1  ZINC000484424341   -0.5200
     27 C27         0.2298    2.6018   45.7387 C.3     1  ZINC000484424341    0.0900
     28 C28        -4.0714    1.9967   49.8776 C.ar    1  ZINC000484424341   -0.1300
     29 H29        -7.6272    4.3684   48.8036 H       1  ZINC000484424341    0.0400
     30 H30        -7.5188    5.7940   49.8639 H       1  ZINC000484424341    0.0900
     31 H31        -6.0355    5.0414   49.2301 H       1  ZINC000484424341    0.0400
     32 H32        -6.6245    2.0445   52.5114 H       1  ZINC000484424341    0.0700
     33 H33        -7.9723    1.6177   51.4301 H       1  ZINC000484424341    0.0600
     34 H34        -6.4279    0.7401   51.3164 H       1  ZINC000484424341    0.0700
     35 H35        -4.9769    4.4843   51.9668 H       1  ZINC000484424341    0.1300
     36 H36        -2.5316    4.6963   52.1493 H       1  ZINC000484424341    0.1300
     37 H37        -1.0647    3.1849   50.8767 H       1  ZINC000484424341    0.1300
     38 H38        -1.7585    0.3338   49.5288 H       1  ZINC000484424341    0.4200
     39 H39         2.0809    0.1085   46.0220 H       1  ZINC000484424341    0.0800
     40 H40         0.6866   -0.4137   45.0360 H       1  ZINC000484424341    0.0800
     41 H41         2.6606    1.8040   44.5230 H       1  ZINC000484424341    0.0900
     42 H42         1.7331    0.8101   43.3519 H       1  ZINC000484424341    0.0900
     43 H43         0.7894    3.9453   41.6233 H       1  ZINC000484424341    0.0800
     44 H44        -0.5674    4.4633   42.6677 H       1  ZINC000484424341    0.0800
     45 H45         1.2870    6.2445   41.6254 H       1  ZINC000484424341    0.0900
     46 H46         0.4629    6.5174   43.1969 H       1  ZINC000484424341    0.0800
     47 H47         3.2550    5.4567   42.6559 H       1  ZINC000484424341    0.1100
     48 H48         2.6680    6.4370   44.0358 H       1  ZINC000484424341    0.1000
     49 H49        -0.7822    2.9913   45.8492 H       1  ZINC000484424341    0.0900
     50 H50         0.9456    3.2569   46.2354 H       1  ZINC000484424341    0.0900
     51 H51        -4.5049    1.2406   49.2396 H       1  ZINC000484424341    0.1300
@<TRIPOS>BOND
     1     1     2    1
     2     1    29    1
     3     1    30    1
     4     1    31    1
     5     2     3    1
     6     3     4    1
     7     3     5    1
     8     3     6    1
     9     5    32    1
    10     5    33    1
    11     5    34    1
    12     6    28   ar
    13     6     7   ar
    14     7     8   ar
    15     7    35    1
    16     8     9   ar
    17     8    36    1
    18     9    10   ar
    19     9    37    1
    20    10    11    1
    21    10    28   ar
    22    11    12   am
    23    11    38    1
    24    12    13    2
    25    12    14    1
    26    14    15    2
    27    14    16   am
    28    16    27    1
    29    16    17    1
    30    17    18    1
    31    17    39    1
    32    17    40    1
    33    18    19    1
    34    18    41    1
    35    18    42    1
    36    19    20    1
    37    19    21    1
    38    19    27    1
    39    21    25   am
    40    21    22    1
    41    22    23    1
    42    22    43    1
    43    22    44    1
    44    23    24    1
    45    23    45    1
    46    23    46    1
    47    24    25    1
    48    24    47    1
    49    24    48    1
    50    25    26    2
    51    27    49    1
    52    27    50    1
    53    28    51    1
@<TRIPOS>SUBSTRUCTURE
     1 ZINC000484424341        1 TEMP              0 ****  ****    0 ROOT


##########                                Name:    ZINC001000186632
##########                DOCK_Rotatable_Bonds:                   7
##########                         Heavy_Atoms:                  23
##########                    Molecular_Weight:             342.379
##########                DOCK_Rotatable_Bonds:                   7
##########                       Formal_Charge:          -0.0100001
##########                     HBond_Acceptors:                  11
##########                        HBond_Donors:                   2
##########                         Heavy_Atoms:                  23
##########                          Grid_Score:          -30.178408
##########                     Grid_vdw_energy:          -28.065891
##########                      Grid_es_energy:           -2.112516
##########           Internal_energy_repulsive:            7.188207

@<TRIPOS>MOLECULE
ZINC001000186632
 41 43 1 0 0
SMALL
USER_CHARGES


@<TRIPOS>ATOM
      1 O1         -7.2592    2.3079   58.4485 O.2     1  ZINC001000186632   -0.5200
      2 C2         -8.1742    1.7819   57.8510 C.2     1  ZINC001000186632    0.5300
      3 C3         -8.7372    2.4307   56.6128 C.3     1  ZINC001000186632   -0.0500
      4 C4         -7.6162    2.7427   55.6551 C.2     1  ZINC001000186632    0.2400
      5 N5         -6.4242    3.1605   55.9914 N.2     1  ZINC001000186632   -0.3000
      6 N6         -5.7005    3.3249   54.7991 N.pl3   1  ZINC001000186632   -0.4800
      7 C7         -6.5335    2.9839   53.8007 C.2     1  ZINC001000186632    0.2700
      8 N8         -7.6775    2.6318   54.3288 N.2     1  ZINC001000186632   -0.5400
      9 N9         -8.6839    0.6144   58.2911 N.am    1  ZINC001000186632   -0.7100
     10 C10        -8.1366   -0.0162   59.4948 C.3     1  ZINC001000186632    0.1100
     11 C11        -8.9029    0.3368   60.7826 C.3     1  ZINC001000186632    0.1000
     12 N12        -9.7234   -0.8574   60.5021 N.am    1  ZINC001000186632   -0.6500
     13 C13       -10.9720   -1.2441   60.8309 C.2     1  ZINC001000186632    0.5100
     14 O14       -11.6706   -0.5232   61.5117 O.2     1  ZINC001000186632   -0.5100
     15 C15       -11.5001   -2.5720   60.3528 C.3     1  ZINC001000186632    0.1500
     16 N16       -12.3530   -2.3646   59.1798 N.am    1  ZINC001000186632   -0.9800
     17 C17       -11.9032   -2.2612   57.7835 C.3     1  ZINC001000186632    0.0800
     18 C18       -13.0070   -2.7628   56.8329 C.3     1  ZINC001000186632   -0.1300
     19 C19       -14.3088   -2.1040   57.3740 C.3     1  ZINC001000186632   -0.6000
     20 S20       -14.0159   -2.2093   59.1815 S.o2    1  ZINC001000186632    2.5700
     21 O21       -14.5080   -3.4320   59.7127 O.2     1  ZINC001000186632   -0.9400
     22 O22       -14.2651   -0.9631   59.8171 O.2     1  ZINC001000186632   -0.9600
     23 C23        -8.6277   -1.4582   59.7170 C.3     1  ZINC001000186632    0.0900
     24 H24        -9.4439    1.7514   56.1359 H       1  ZINC001000186632    0.1300
     25 H25        -9.2486    3.3535   56.8865 H       1  ZINC001000186632    0.1200
     26 H26        -4.7821    3.6252   54.7131 H       1  ZINC001000186632    0.4400
     27 H27        -6.2982    2.9953   52.7466 H       1  ZINC001000186632    0.2200
     28 H28        -9.4131    0.1919   57.8109 H       1  ZINC001000186632    0.4100
     29 H29        -7.0559    0.0974   59.5802 H       1  ZINC001000186632    0.1200
     30 H30        -8.3019    0.2542   61.6881 H       1  ZINC001000186632    0.1000
     31 H31        -9.4560    1.2740   60.7217 H       1  ZINC001000186632    0.0900
     32 H32       -10.6654   -3.2198   60.0849 H       1  ZINC001000186632    0.1100
     33 H33       -12.0821   -3.0389   61.1472 H       1  ZINC001000186632    0.1100
     34 H34       -11.6742   -1.2206   57.5537 H       1  ZINC001000186632    0.0800
     35 H35       -11.0067   -2.8659   57.6471 H       1  ZINC001000186632    0.0900
     36 H36       -12.8094   -2.4346   55.8125 H       1  ZINC001000186632    0.1100
     37 H37       -13.0831   -3.8493   56.8768 H       1  ZINC001000186632    0.1000
     38 H38       -14.3918   -1.0682   57.0450 H       1  ZINC001000186632    0.1400
     39 H39       -15.1895   -2.6783   57.0862 H       1  ZINC001000186632    0.1400
     40 H40        -8.9611   -1.9540   58.8054 H       1  ZINC001000186632    0.0900
     41 H41        -7.9458   -2.0682   60.3095 H       1  ZINC001000186632    0.1100
@<TRIPOS>BOND
     1     1     2    2
     2     2     3    1
     3     2     9   am
     4     3     4    1
     5     3    24    1
     6     3    25    1
     7     4     8    1
     8     4     5    2
     9     5     6    1
    10     6     7    1
    11     6    26    1
    12     7     8    2
    13     7    27    1
    14     9    10    1
    15     9    28    1
    16    10    23    1
    17    10    11    1
    18    10    29    1
    19    11    12    1
    20    11    30    1
    21    11    31    1
    22    12    13   am
    23    12    23    1
    24    13    14    2
    25    13    15    1
    26    15    16    1
    27    15    32    1
    28    15    33    1
    29    16    20   am
    30    16    17    1
    31    17    18    1
    32    17    34    1
    33    17    35    1
    34    18    19    1
    35    18    36    1
    36    18    37    1
    37    19    20    1
    38    19    38    1
    39    19    39    1
    40    20    21    2
    41    20    22    2
    42    23    40    1
    43    23    41    1
@<TRIPOS>SUBSTRUCTURE
     1 ZINC001000186632        1 TEMP              0 ****  ****    0 ROOT


##########                                Name:    ZINC000919225759
##########                DOCK_Rotatable_Bonds:                   4
##########                         Heavy_Atoms:                  27
##########                    Molecular_Weight:             375.295
##########                DOCK_Rotatable_Bonds:                   4
##########                       Formal_Charge:                0.04
##########                     HBond_Acceptors:                  11
##########                        HBond_Donors:                   0
##########                         Heavy_Atoms:                  27
##########                          Grid_Score:          -30.165739
##########                     Grid_vdw_energy:          -29.342468
##########                      Grid_es_energy:           -0.823270
##########           Internal_energy_repulsive:            9.932343

@<TRIPOS>MOLECULE
ZINC000919225759
 40 41 1 0 0
SMALL
USER_CHARGES


@<TRIPOS>ATOM
      1 C1         -2.9125    2.0742   48.7496 C.3     1  ZINC000919225759   -0.1500
      2 C2         -1.8957    2.4531   49.7955 C.ar    1  ZINC000919225759    0.0900
      3 C3         -2.3009    3.1061   50.9611 C.ar    1  ZINC000919225759   -0.1200
      4 C4         -3.7269    3.4280   51.1737 C.2     1  ZINC000919225759    0.5200
      5 O5         -4.0573    4.5605   51.4629 O.2     1  ZINC000919225759   -0.4700
      6 O6         -4.6608    2.4654   51.0468 O.3     1  ZINC000919225759   -0.3400
      7 C7         -6.0425    2.8548   51.2647 C.3     1  ZINC000919225759    0.1400
      8 H8         -6.0991    3.5321   52.1169 H       1  ZINC000919225759    0.1100
      9 C9         -6.5766    3.5602   50.0165 C.3     1  ZINC000919225759   -0.1700
     10 C10        -6.8724    1.6278   51.5421 C.ar    1  ZINC000919225759   -0.1000
     11 C11        -6.3901    0.3769   51.2060 C.ar    1  ZINC000919225759   -0.0400
     12 C12        -7.1515   -0.7487   51.4605 C.ar    1  ZINC000919225759   -0.1100
     13 C13        -8.3946   -0.6232   52.0514 C.ar    1  ZINC000919225759   -0.0500
     14 C14        -8.8766    0.6281   52.3885 C.ar    1  ZINC000919225759   -0.0400
     15 N15       -10.2081    0.7626   53.0207 N.pl3   1  ZINC000919225759    0.0300
     16 O16       -10.8791   -0.2290   53.2443 O.2     1  ZINC000919225759   -0.1500
     17 O17       -10.6327    1.8649   53.3177 O.2     1  ZINC000919225759   -0.1500
     18 C18        -8.1136    1.7530   52.1379 C.ar    1  ZINC000919225759   -0.0400
     19 C19        -1.3521    3.4530   51.9253 C.ar    1  ZINC000919225759    0.0500
     20 C20        -0.0226    3.1490   51.7205 C.ar    1  ZINC000919225759   -0.0600
     21 N21         0.9845    3.5156   52.7415 N.pl3   1  ZINC000919225759    0.0300
     22 O22         0.6386    4.0851   53.7611 O.2     1  ZINC000919225759   -0.1300
     23 O23         2.1591    3.2479   52.5621 O.2     1  ZINC000919225759   -0.1300
     24 C24         0.3722    2.5017   50.5628 C.ar    1  ZINC000919225759    0.0400
     25 C25        -0.5632    2.1504   49.6059 C.ar    1  ZINC000919225759   -0.0500
     26 N26        -0.1317    1.4576   48.3710 N.pl3   1  ZINC000919225759    0.0200
     27 O27         0.9210    1.7608   47.8387 O.2     1  ZINC000919225759   -0.1300
     28 O28        -0.8295    0.5844   47.8871 O.2     1  ZINC000919225759   -0.1200
     29 H29        -3.3802    1.1285   49.0235 H       1  ZINC000919225759    0.1200
     30 H30        -3.6744    2.8511   48.6854 H       1  ZINC000919225759    0.1200
     31 H31        -2.4184    1.9691   47.7838 H       1  ZINC000919225759    0.0900
     32 H32        -6.5200    2.8831   49.1643 H       1  ZINC000919225759    0.0700
     33 H33        -7.6139    3.8525   50.1800 H       1  ZINC000919225759    0.0900
     34 H34        -5.9763    4.4476   49.8158 H       1  ZINC000919225759    0.0700
     35 H35        -5.4188    0.2789   50.7443 H       1  ZINC000919225759    0.1500
     36 H36        -6.7749   -1.7261   51.1973 H       1  ZINC000919225759    0.1500
     37 H37        -8.9896   -1.5024   52.2496 H       1  ZINC000919225759    0.1600
     38 H38        -8.4902    2.7305   52.4012 H       1  ZINC000919225759    0.1600
     39 H39        -1.6587    3.9586   52.8290 H       1  ZINC000919225759    0.1900
     40 H40         1.4148    2.2663   50.4074 H       1  ZINC000919225759    0.1900
@<TRIPOS>BOND
     1     1     2    1
     2     1    29    1
     3     1    30    1
     4     1    31    1
     5     2    25   ar
     6     2     3   ar
     7     3     4    1
     8     3    19   ar
     9     4     5    2
    10     4     6    1
    11     6     7    1
    12     7     8    1
    13     7     9    1
    14     7    10    1
    15     9    32    1
    16     9    33    1
    17     9    34    1
    18    10    18   ar
    19    10    11   ar
    20    11    12   ar
    21    11    35    1
    22    12    13   ar
    23    12    36    1
    24    13    14   ar
    25    13    37    1
    26    14    15    1
    27    14    18   ar
    28    15    16    2
    29    15    17    2
    30    18    38    1
    31    19    20   ar
    32    19    39    1
    33    20    21    1
    34    20    24   ar
    35    21    22    2
    36    21    23    2
    37    24    25   ar
    38    24    40    1
    39    25    26    1
    40    26    27    2
    41    26    28    2
@<TRIPOS>SUBSTRUCTURE
     1 ZINC000919225759        1 TEMP              0 ****  ****    0 ROOT


##########                                Name:    ZINC000840464592
##########                DOCK_Rotatable_Bonds:                  10
##########                         Heavy_Atoms:                  26
##########                    Molecular_Weight:             360.497
##########                DOCK_Rotatable_Bonds:                  10
##########                       Formal_Charge:          -0.0399996
##########                     HBond_Acceptors:                   5
##########                        HBond_Donors:                   1
##########                         Heavy_Atoms:                  26
##########                          Grid_Score:          -30.164839
##########                     Grid_vdw_energy:          -30.061058
##########                      Grid_es_energy:           -0.103781
##########           Internal_energy_repulsive:           84.109001

@<TRIPOS>MOLECULE
ZINC000840464592
 58 59 1 0 0
SMALL
USER_CHARGES


@<TRIPOS>ATOM
      1 C1         -7.5376    4.9323   50.6989 C.3     1  ZINC000840464592   -0.1500
      2 C2         -6.6057    3.9773   49.9503 C.3     1  ZINC000840464592   -0.1300
      3 C3         -5.5719    3.4066   50.9231 C.3     1  ZINC000840464592   -0.1200
      4 C4         -4.6391    2.4526   50.1743 C.3     1  ZINC000840464592   -0.1200
      5 C5         -3.5966    1.8928   51.1440 C.3     1  ZINC000840464592   -0.1200
      6 C6         -2.6174    3.0012   51.5358 C.3     1  ZINC000840464592    0.0600
      7 O7         -1.3631    2.7797   50.8880 O.3     1  ZINC000840464592   -0.3600
      8 C8         -1.1128    3.6590   49.7897 C.3     1  ZINC000840464592    0.0800
      9 H9         -2.0060    3.7280   49.1687 H       1  ZINC000840464592    0.0800
     10 C10        -0.7520    5.0480   50.3203 C.3     1  ZINC000840464592   -0.1800
     11 C11         0.0305    3.1228   48.9673 C.2     1  ZINC000840464592    0.5200
     12 O12         1.0937    3.7062   48.9538 O.2     1  ZINC000840464592   -0.5000
     13 N13        -0.1285    1.9950   48.2468 N.am    1  ZINC000840464592   -0.6000
     14 C14        -1.4107    1.2957   48.2660 C.3     1  ZINC000840464592    0.0900
     15 C15        -1.2760   -0.1028   48.8580 C.3     1  ZINC000840464592   -0.1600
     16 C16        -0.3457   -0.9550   47.9919 C.3     1  ZINC000840464592    0.0800
     17 N17         1.0357   -0.7750   48.4517 N.am    1  ZINC000840464592   -0.7200
     18 C18         1.6786    0.3829   48.2320 C.2     1  ZINC000840464592    0.5100
     19 O19         2.8021    0.5504   48.6572 O.2     1  ZINC000840464592   -0.5200
     20 C20         0.9851    1.4802   47.4430 C.3     1  ZINC000840464592    0.1400
     21 H21         1.6914    2.2843   47.2367 H       1  ZINC000840464592    0.1300
     22 C22         0.4578    0.9096   46.1249 C.3     1  ZINC000840464592   -0.1000
     23 C23         0.8743    1.8058   44.9872 C.ar    1  ZINC000840464592   -0.0900
     24 C24        -0.0067    2.7489   44.4920 C.ar    1  ZINC000840464592   -0.1100
     25 C25         0.3753    3.5709   43.4484 C.ar    1  ZINC000840464592   -0.1200
     26 C26         1.6385    3.4501   42.9003 C.ar    1  ZINC000840464592   -0.1200
     27 C27         2.5199    2.5077   43.3961 C.ar    1  ZINC000840464592   -0.1200
     28 C28         2.1393    1.6886   44.4425 C.ar    1  ZINC000840464592   -0.1100
     29 H29        -6.9544    5.7469   51.1284 H       1  ZINC000840464592    0.0500
     30 H30        -8.2741    5.3390   50.0058 H       1  ZINC000840464592    0.0500
     31 H31        -8.0482    4.3916   51.4956 H       1  ZINC000840464592    0.0500
     32 H32        -7.1890    3.1628   49.5208 H       1  ZINC000840464592    0.0600
     33 H33        -6.0950    4.5181   49.1535 H       1  ZINC000840464592    0.0600
     34 H34        -4.9892    4.2211   51.3534 H       1  ZINC000840464592    0.0600
     35 H35        -6.0825    2.8649   51.7194 H       1  ZINC000840464592    0.0600
     36 H36        -5.2204    1.6325   49.7527 H       1  ZINC000840464592    0.0600
     37 H37        -4.1361    2.9917   49.3715 H       1  ZINC000840464592    0.0600
     38 H38        -4.0959    1.5168   52.0371 H       1  ZINC000840464592    0.0700
     39 H39        -3.0521    1.0804   50.6629 H       1  ZINC000840464592    0.0700
     40 H40        -3.0195    3.9665   51.2286 H       1  ZINC000840464592    0.0500
     41 H41        -2.4744    2.9945   52.6165 H       1  ZINC000840464592    0.0500
     42 H42        -0.4919    5.6993   49.4860 H       1  ZINC000840464592    0.0800
     43 H43        -1.6051    5.4655   50.8551 H       1  ZINC000840464592    0.0700
     44 H44         0.0981    4.9684   50.9979 H       1  ZINC000840464592    0.0800
     45 H45        -2.1199    1.8685   48.8636 H       1  ZINC000840464592    0.1000
     46 H46        -1.7884    1.2160   47.2467 H       1  ZINC000840464592    0.0800
     47 H47        -0.8662   -0.0306   49.8655 H       1  ZINC000840464592    0.0800
     48 H48        -2.2586   -0.5723   48.9027 H       1  ZINC000840464592    0.1000
     49 H49        -0.6254   -2.0048   48.0804 H       1  ZINC000840464592    0.0900
     50 H50        -0.4273   -0.6412   46.9512 H       1  ZINC000840464592    0.1000
     51 H51         1.4871   -1.4964   48.9173 H       1  ZINC000840464592    0.4000
     52 H52         0.8686   -0.0882   45.9707 H       1  ZINC000840464592    0.0900
     53 H53        -0.6301    0.8526   46.1631 H       1  ZINC000840464592    0.1000
     54 H54        -0.9938    2.8432   44.9202 H       1  ZINC000840464592    0.1200
     55 H55        -0.3134    4.3072   43.0611 H       1  ZINC000840464592    0.1200
     56 H56         1.9368    4.0919   42.0844 H       1  ZINC000840464592    0.1200
     57 H57         3.5068    2.4131   42.9675 H       1  ZINC000840464592    0.1200
     58 H58         2.8279    0.9522   44.8298 H       1  ZINC000840464592    0.1200
@<TRIPOS>BOND
     1     1     2    1
     2     1    29    1
     3     1    30    1
     4     1    31    1
     5     2     3    1
     6     2    32    1
     7     2    33    1
     8     3     4    1
     9     3    34    1
    10     3    35    1
    11     4     5    1
    12     4    36    1
    13     4    37    1
    14     5     6    1
    15     5    38    1
    16     5    39    1
    17     6     7    1
    18     6    40    1
    19     6    41    1
    20     7     8    1
    21     8     9    1
    22     8    10    1
    23     8    11    1
    24    10    42    1
    25    10    43    1
    26    10    44    1
    27    11    12    2
    28    11    13   am
    29    13    20    1
    30    13    14    1
    31    14    15    1
    32    14    45    1
    33    14    46    1
    34    15    16    1
    35    15    47    1
    36    15    48    1
    37    16    17    1
    38    16    49    1
    39    16    50    1
    40    17    18   am
    41    17    51    1
    42    18    19    2
    43    18    20    1
    44    20    21    1
    45    20    22    1
    46    22    23    1
    47    22    52    1
    48    22    53    1
    49    23    28   ar
    50    23    24   ar
    51    24    25   ar
    52    24    54    1
    53    25    26   ar
    54    25    55    1
    55    26    27   ar
    56    26    56    1
    57    27    28   ar
    58    27    57    1
    59    28    58    1
@<TRIPOS>SUBSTRUCTURE
     1 ZINC000840464592        1 TEMP              0 ****  ****    0 ROOT


##########                                Name:    ZINC000504243286
##########                DOCK_Rotatable_Bonds:                   7
##########                         Heavy_Atoms:                  29
##########                    Molecular_Weight:             408.337
##########                DOCK_Rotatable_Bonds:                   7
##########                       Formal_Charge:           0.0299994
##########                     HBond_Acceptors:                  11
##########                        HBond_Donors:                   3
##########                         Heavy_Atoms:                  29
##########                          Grid_Score:          -30.154625
##########                     Grid_vdw_energy:          -28.062971
##########                      Grid_es_energy:           -2.091655
##########           Internal_energy_repulsive:           13.848280

@<TRIPOS>MOLECULE
ZINC000504243286
 44 46 1 0 0
SMALL
USER_CHARGES


@<TRIPOS>ATOM
      1 O1         -4.6820    5.0874   51.6655 O.2     1  ZINC000504243286   -0.5200
      2 C2         -4.4082    4.4775   52.6775 C.2     1  ZINC000504243286    0.5200
      3 C3         -5.2461    4.6593   53.9169 C.3     1  ZINC000504243286   -0.1600
      4 C4         -6.6639    4.1481   53.6535 C.3     1  ZINC000504243286    0.1300
      5 N5         -6.6037    2.7618   53.1836 N.pl3   1  ZINC000504243286   -0.7200
      6 C6         -7.7696    1.9956   53.1174 C.ar    1  ZINC000504243286    0.3100
      7 C7         -8.9113    2.4059   53.7934 C.ar    1  ZINC000504243286   -0.1900
      8 C8        -10.0628    1.6461   53.7255 C.ar    1  ZINC000504243286    0.0200
      9 C9        -10.0797    0.4781   52.9855 C.ar    1  ZINC000504243286   -0.2400
     10 C10       -11.3379   -0.3480   52.9133 C.3     1  ZINC000504243286    0.5200
     11 F11       -11.3368   -1.0971   51.7318 F       1  ZINC000504243286   -0.1700
     12 F12       -11.3929   -1.2112   54.0128 F       1  ZINC000504243286   -0.1700
     13 F13       -12.4524    0.4976   52.9282 F       1  ZINC000504243286   -0.1700
     14 C14        -8.9444    0.0667   52.3111 C.ar    1  ZINC000504243286    0.0400
     15 C15        -7.7915    0.8244   52.3705 C.ar    1  ZINC000504243286   -0.1200
     16 N16        -6.5772    0.3832   51.6485 N.pl3   1  ZINC000504243286    0.0400
     17 O17        -5.8555    1.2047   51.1119 O.2     1  ZINC000504243286   -0.1700
     18 O18        -6.2994   -0.8012   51.5909 O.2     1  ZINC000504243286   -0.1400
     19 N19        -3.3580    3.6329   52.6920 N.am    1  ZINC000504243286   -0.6700
     20 C20        -2.5793    3.4638   51.5400 C.ar    1  ZINC000504243286    0.1200
     21 C21        -1.6740    4.4456   51.1597 C.ar    1  ZINC000504243286   -0.1000
     22 C22        -0.9055    4.2819   50.0265 C.ar    1  ZINC000504243286   -0.1200
     23 C23        -1.0323    3.1295   49.2534 C.ar    1  ZINC000504243286    0.1300
     24 N24        -0.3775    2.7405   48.0822 N.am    1  ZINC000504243286   -0.6600
     25 C25        -0.7914    1.5400   47.6433 C.2     1  ZINC000504243286    0.5300
     26 O26        -0.3961    0.9590   46.6546 O.2     1  ZINC000504243286   -0.5000
     27 C27        -1.8435    1.0484   48.6144 C.3     1  ZINC000504243286   -0.1200
     28 C28        -1.9410    2.1526   49.6417 C.ar    1  ZINC000504243286   -0.1200
     29 C29        -2.7051    2.3099   50.7750 C.ar    1  ZINC000504243286   -0.0600
     30 H30        -4.8042    4.0975   54.7397 H       1  ZINC000504243286    0.1100
     31 H31        -5.2838    5.7169   54.1779 H       1  ZINC000504243286    0.1100
     32 H32        -7.2439    4.1944   54.5751 H       1  ZINC000504243286    0.0800
     33 H33        -7.1386    4.7690   52.8937 H       1  ZINC000504243286    0.0900
     34 H34        -5.7542    2.3761   52.9184 H       1  ZINC000504243286    0.4100
     35 H35        -8.8988    3.3179   54.3718 H       1  ZINC000504243286    0.1600
     36 H36       -10.9510    1.9643   54.2512 H       1  ZINC000504243286    0.1600
     37 H37        -8.9609   -0.8461   51.7340 H       1  ZINC000504243286    0.1600
     38 H38        -3.1415    3.1420   53.5001 H       1  ZINC000504243286    0.4200
     39 H39        -1.5714    5.3414   51.7541 H       1  ZINC000504243286    0.1400
     40 H40        -0.2033    5.0496   49.7368 H       1  ZINC000504243286    0.1300
     41 H41         0.2983    3.2755   47.6372 H       1  ZINC000504243286    0.4100
     42 H42        -2.7986    0.9139   48.1066 H       1  ZINC000504243286    0.1300
     43 H43        -1.5249    0.1175   49.0834 H       1  ZINC000504243286    0.1300
     44 H44        -3.4038    1.5401   51.0677 H       1  ZINC000504243286    0.1500
@<TRIPOS>BOND
     1     1     2    2
     2     2     3    1
     3     2    19   am
     4     3     4    1
     5     3    30    1
     6     3    31    1
     7     4     5    1
     8     4    32    1
     9     4    33    1
    10     5     6    1
    11     5    34    1
    12     6    15   ar
    13     6     7   ar
    14     7     8   ar
    15     7    35    1
    16     8     9   ar
    17     8    36    1
    18     9    10    1
    19     9    14   ar
    20    10    11    1
    21    10    12    1
    22    10    13    1
    23    14    15   ar
    24    14    37    1
    25    15    16    1
    26    16    17    2
    27    16    18    2
    28    19    20    1
    29    19    38    1
    30    20    29   ar
    31    20    21   ar
    32    21    22   ar
    33    21    39    1
    34    22    23   ar
    35    22    40    1
    36    23    28   ar
    37    23    24    1
    38    24    25   am
    39    24    41    1
    40    25    26    2
    41    25    27    1
    42    27    28    1
    43    27    42    1
    44    27    43    1
    45    28    29   ar
    46    29    44    1
@<TRIPOS>SUBSTRUCTURE
     1 ZINC000504243286        1 TEMP              0 ****  ****    0 ROOT


##########                                Name:    ZINC000746432885
##########                DOCK_Rotatable_Bonds:                  11
##########                         Heavy_Atoms:                  31
##########                    Molecular_Weight:              419.44
##########                DOCK_Rotatable_Bonds:                  11
##########                       Formal_Charge:           0.0199995
##########                     HBond_Acceptors:                   9
##########                        HBond_Donors:                   2
##########                         Heavy_Atoms:                  31
##########                          Grid_Score:          -30.141998
##########                     Grid_vdw_energy:          -32.028786
##########                      Grid_es_energy:            1.886787
##########           Internal_energy_repulsive:           16.056566

@<TRIPOS>MOLECULE
ZINC000746432885
 52 54 1 0 0
SMALL
USER_CHARGES


@<TRIPOS>ATOM
      1 C1          3.0360    0.9723   51.3637 C.3     1  ZINC000746432885    0.0300
      2 O2          2.9451    2.3938   51.2479 O.3     1  ZINC000746432885   -0.3200
      3 C3          1.9063    2.8887   50.5248 C.ar    1  ZINC000746432885    0.1300
      4 C4          1.8891    4.2269   50.1595 C.ar    1  ZINC000746432885   -0.2000
      5 C5          0.8319    4.7276   49.4247 C.ar    1  ZINC000746432885   -0.0800
      6 C6         -0.2087    3.8963   49.0535 C.ar    1  ZINC000746432885   -0.1400
      7 C7         -0.1939    2.5622   49.4164 C.ar    1  ZINC000746432885   -0.0600
      8 C8         -1.3295    1.6587   49.0098 C.3     1  ZINC000746432885    0.2300
      9 N9         -2.5799    2.4221   48.9960 N.am    1  ZINC000746432885   -0.6900
     10 C10        -3.5793    2.0937   49.8385 C.2     1  ZINC000746432885    0.5200
     11 O11        -3.4429    1.1664   50.6097 O.2     1  ZINC000746432885   -0.5100
     12 C12        -4.8544    2.8705   49.8232 C.2     1  ZINC000746432885    0.5100
     13 O13        -5.1844    3.4760   48.8240 O.2     1  ZINC000746432885   -0.5100
     14 N14        -5.6391    2.8996   50.9186 N.am    1  ZINC000746432885   -0.6100
     15 C15        -6.8395    3.6290   50.9037 C.2     1  ZINC000746432885    0.0000
     16 C16        -8.0452    3.1963   51.3560 C.2     1  ZINC000746432885    0.0400
     17 N17        -8.9376    4.1939   51.1629 N.pl3   1  ZINC000746432885   -0.3800
     18 C18       -10.3606    4.1548   51.5083 C.3     1  ZINC000746432885    0.2500
     19 C19       -11.1312    4.8993   50.4990 C.1     1  ZINC000746432885    0.1900
     20 N20       -11.7260    5.4738   49.7202 N.1     1  ZINC000746432885   -0.3900
     21 N21        -8.2624    5.2711   50.5751 N.2     1  ZINC000746432885   -0.2800
     22 C22        -7.0064    4.9375   50.4244 C.2     1  ZINC000746432885    0.0700
     23 C23        -1.0634    1.1057   47.6334 C.ar    1  ZINC000746432885   -0.0500
     24 C24        -0.8137   -0.2440   47.4677 C.ar    1  ZINC000746432885   -0.1500
     25 C25        -0.5697   -0.7545   46.2061 C.ar    1  ZINC000746432885   -0.0700
     26 C26        -0.5747    0.0834   45.1078 C.ar    1  ZINC000746432885   -0.2000
     27 C27        -0.8248    1.4380   45.2714 C.ar    1  ZINC000746432885    0.1300
     28 O28        -0.8303    2.2644   44.1926 O.3     1  ZINC000746432885   -0.3200
     29 C29         0.1415    3.3119   44.1728 C.3     1  ZINC000746432885    0.0300
     30 C30        -1.0747    1.9469   46.5377 C.ar    1  ZINC000746432885   -0.1300
     31 C31         0.8639    2.0553   50.1460 C.ar    1  ZINC000746432885   -0.1300
     32 H32         3.1342    0.5325   50.3712 H       1  ZINC000746432885    0.0600
     33 H33         3.9075    0.7117   51.9644 H       1  ZINC000746432885    0.1000
     34 H34         2.1358    0.5886   51.8438 H       1  ZINC000746432885    0.0600
     35 H35         2.7013    4.8768   50.4498 H       1  ZINC000746432885    0.1300
     36 H36         0.8181    5.7693   49.1399 H       1  ZINC000746432885    0.1300
     37 H37        -1.0346    4.2897   48.4796 H       1  ZINC000746432885    0.1200
     38 H38        -1.4131    0.8374   49.7215 H       1  ZINC000746432885    0.1200
     39 H39        -2.6886    3.1639   48.3805 H       1  ZINC000746432885    0.4200
     40 H40        -5.3748    2.4168   51.7174 H       1  ZINC000746432885    0.4200
     41 H41        -8.2535    2.2299   51.7910 H       1  ZINC000746432885    0.1900
     42 H42       -10.7002    3.1193   51.5334 H       1  ZINC000746432885    0.1300
     43 H43       -10.5096    4.6098   52.4875 H       1  ZINC000746432885    0.1500
     44 H44        -6.2329    5.5593   49.9985 H       1  ZINC000746432885    0.2100
     45 H45        -0.8090   -0.9007   48.3251 H       1  ZINC000746432885    0.1200
     46 H46        -0.3746   -1.8092   46.0793 H       1  ZINC000746432885    0.1300
     47 H47        -0.3836   -0.3159   44.1226 H       1  ZINC000746432885    0.1300
     48 H48         0.0279    3.8957   43.2593 H       1  ZINC000746432885    0.1000
     49 H49        -0.0038    3.9587   45.0379 H       1  ZINC000746432885    0.0600
     50 H50         1.1418    2.8800   44.2060 H       1  ZINC000746432885    0.0600
     51 H51        -1.2698    3.0011   46.6677 H       1  ZINC000746432885    0.1400
     52 H52         0.8750    1.0131   50.4292 H       1  ZINC000746432885    0.1300
@<TRIPOS>BOND
     1     1     2    1
     2     1    32    1
     3     1    33    1
     4     1    34    1
     5     2     3    1
     6     3    31   ar
     7     3     4   ar
     8     4     5   ar
     9     4    35    1
    10     5     6   ar
    11     5    36    1
    12     6     7   ar
    13     6    37    1
    14     7     8    1
    15     7    31   ar
    16     8     9    1
    17     8    23    1
    18     8    38    1
    19     9    10   am
    20     9    39    1
    21    10    11    2
    22    10    12    1
    23    12    13    2
    24    12    14   am
    25    14    15    1
    26    14    40    1
    27    15    22    1
    28    15    16    2
    29    16    17    1
    30    16    41    1
    31    17    18    1
    32    17    21    1
    33    18    19    1
    34    18    42    1
    35    18    43    1
    36    19    20    3
    37    21    22    2
    38    22    44    1
    39    23    30   ar
    40    23    24   ar
    41    24    25   ar
    42    24    45    1
    43    25    26   ar
    44    25    46    1
    45    26    27   ar
    46    26    47    1
    47    27    28    1
    48    27    30   ar
    49    28    29    1
    50    29    48    1
    51    29    49    1
    52    29    50    1
    53    30    51    1
    54    31    52    1
@<TRIPOS>SUBSTRUCTURE
     1 ZINC000746432885        1 TEMP              0 ****  ****    0 ROOT


##########                                Name:    ZINC001045463759
##########                DOCK_Rotatable_Bonds:                   6
##########                         Heavy_Atoms:                  24
##########                    Molecular_Weight:             336.385
##########                DOCK_Rotatable_Bonds:                   6
##########                       Formal_Charge:          1.3411e-07
##########                     HBond_Acceptors:                   7
##########                        HBond_Donors:                   2
##########                         Heavy_Atoms:                  24
##########                          Grid_Score:          -30.103849
##########                     Grid_vdw_energy:          -29.544382
##########                      Grid_es_energy:           -0.559467
##########           Internal_energy_repulsive:           12.536803

@<TRIPOS>MOLECULE
ZINC001045463759
 46 49 1 0 0
SMALL
USER_CHARGES


@<TRIPOS>ATOM
      1 O1          0.7075    3.8409   47.2060 O.2     1  ZINC001045463759   -0.5100
      2 C2          0.6125    3.2749   46.1376 C.2     1  ZINC001045463759    0.5400
      3 N3          0.4489    1.9378   46.0956 N.am    1  ZINC001045463759   -0.7200
      4 C4          0.3919    1.1673   47.3403 C.3     1  ZINC001045463759    0.1400
      5 H5          0.8294    1.7517   48.1497 H       1  ZINC001045463759    0.1000
      6 C6          1.1761   -0.1353   47.1702 C.3     1  ZINC001045463759   -0.1300
      7 C7          1.1166   -0.9400   48.4701 C.3     1  ZINC001045463759   -0.1200
      8 C8         -0.3414   -1.2622   48.8041 C.3     1  ZINC001045463759   -0.1200
      9 C9         -1.1256    0.0404   48.9742 C.3     1  ZINC001045463759   -0.1300
     10 C10        -1.0660    0.8451   47.6744 C.3     1  ZINC001045463759    0.1500
     11 H11        -1.5035    0.2606   46.8649 H       1  ZINC001045463759    0.0900
     12 N12        -1.8170    2.0923   47.8372 N.pl3   1  ZINC001045463759   -0.7100
     13 C13        -2.1554    2.5367   49.1050 C.ar    1  ZINC001045463759    0.4400
     14 C14        -1.1910    3.1087   49.9370 C.ar    1  ZINC001045463759   -0.3000
     15 C15        -1.5782    3.5362   51.1919 C.ar    1  ZINC001045463759    0.1800
     16 N16        -2.8425    3.3910   51.5630 N.ar    1  ZINC001045463759   -0.5600
     17 C17        -3.7292    2.8469   50.7541 C.ar    1  ZINC001045463759    0.4000
     18 C18        -5.1550    2.7030   51.2205 C.3     1  ZINC001045463759   -0.1100
     19 C19        -6.2396    2.5774   50.1486 C.3     1  ZINC001045463759   -0.1500
     20 C20        -5.8436    1.3575   50.9828 C.3     1  ZINC001045463759   -0.1500
     21 N21        -3.4052    2.4303   49.5469 N.ar    1  ZINC001045463759   -0.5700
     22 C22         0.6712    4.0674   44.8571 C.3     1  ZINC001045463759   -0.2000
     23 H23        -0.1817    3.9455   44.1893 H       1  ZINC001045463759    0.1500
     24 C24         1.3375    5.4438   44.9080 C.3     1  ZINC001045463759   -0.1500
     25 C25         2.0453    4.2754   44.2173 C.3     1  ZINC001045463759    0.2300
     26 F26         3.1514    3.7157   44.8660 F       1  ZINC001045463759   -0.1400
     27 F27         2.1112    4.2950   42.8200 F       1  ZINC001045463759   -0.1500
     28 H28         0.3690    1.4855   45.2412 H       1  ZINC001045463759    0.4000
     29 H29         0.7386   -0.7197   46.3608 H       1  ZINC001045463759    0.0700
     30 H30         2.2148    0.0942   46.9322 H       1  ZINC001045463759    0.0800
     31 H31         1.6753   -1.8681   48.3490 H       1  ZINC001045463759    0.0700
     32 H32         1.5541   -0.3556   49.2795 H       1  ZINC001045463759    0.0700
     33 H33        -0.7788   -1.8467   47.9948 H       1  ZINC001045463759    0.0700
     34 H34        -0.3837   -1.8355   49.7302 H       1  ZINC001045463759    0.0700
     35 H35        -2.1642   -0.1891   49.2122 H       1  ZINC001045463759    0.0700
     36 H36        -0.6880    0.6248   49.7836 H       1  ZINC001045463759    0.0700
     37 H37        -2.0772    2.6071   47.0573 H       1  ZINC001045463759    0.4100
     38 H38        -0.1678    3.2138   49.6077 H       1  ZINC001045463759    0.1400
     39 H39        -0.8596    3.9831   51.8630 H       1  ZINC001045463759    0.1700
     40 H40        -5.4083    3.2438   52.1323 H       1  ZINC001045463759    0.1300
     41 H41        -7.2067    3.0358   50.3551 H       1  ZINC001045463759    0.1000
     42 H42        -5.9217    2.5990   49.1062 H       1  ZINC001045463759    0.1100
     43 H43        -5.2653    0.5765   50.4892 H       1  ZINC001045463759    0.1000
     44 H44        -6.5501    1.0133   51.7380 H       1  ZINC001045463759    0.1000
     45 H45         0.9233    6.2272   44.2734 H       1  ZINC001045463759    0.1400
     46 H46         1.7335    5.7760   45.8677 H       1  ZINC001045463759    0.1300
@<TRIPOS>BOND
     1     1     2    2
     2     2     3   am
     3     2    22    1
     4     3     4    1
     5     3    28    1
     6     4     5    1
     7     4    10    1
     8     4     6    1
     9     6     7    1
    10     6    29    1
    11     6    30    1
    12     7     8    1
    13     7    31    1
    14     7    32    1
    15     8     9    1
    16     8    33    1
    17     8    34    1
    18     9    10    1
    19     9    35    1
    20     9    36    1
    21    10    11    1
    22    10    12    1
    23    12    13    1
    24    12    37    1
    25    13    21   ar
    26    13    14   ar
    27    14    15   ar
    28    14    38    1
    29    15    16   ar
    30    15    39    1
    31    16    17   ar
    32    17    18    1
    33    17    21   ar
    34    18    20    1
    35    18    19    1
    36    18    40    1
    37    19    20    1
    38    19    41    1
    39    19    42    1
    40    20    43    1
    41    20    44    1
    42    22    23    1
    43    22    25    1
    44    22    24    1
    45    24    25    1
    46    24    45    1
    47    24    46    1
    48    25    26    1
    49    25    27    1
@<TRIPOS>SUBSTRUCTURE
     1 ZINC001045463759        1 TEMP              0 ****  ****    0 ROOT


##########                                Name:    ZINC001141221454
##########                DOCK_Rotatable_Bonds:                   7
##########                         Heavy_Atoms:                  27
##########                    Molecular_Weight:             369.439
##########                DOCK_Rotatable_Bonds:                   7
##########                       Formal_Charge:          0.00999935
##########                     HBond_Acceptors:                   6
##########                        HBond_Donors:                   1
##########                         Heavy_Atoms:                  27
##########                          Grid_Score:          -30.075340
##########                     Grid_vdw_energy:          -29.241488
##########                      Grid_es_energy:           -0.833853
##########           Internal_energy_repulsive:           16.579021

@<TRIPOS>MOLECULE
ZINC001141221454
 51 54 1 0 0
SMALL
USER_CHARGES


@<TRIPOS>ATOM
      1 C1         -8.5782    3.2885   52.5853 C.3     1  ZINC001141221454    0.0300
      2 O2         -7.5563    2.3235   52.3267 O.3     1  ZINC001141221454   -0.3100
      3 C3         -6.6900    2.5979   51.3155 C.ar    1  ZINC001141221454    0.0900
      4 C4         -7.1140    3.3291   50.2170 C.ar    1  ZINC001141221454   -0.1800
      5 C5         -6.2314    3.6074   49.1902 C.ar    1  ZINC001141221454   -0.0900
      6 C6         -4.9262    3.1574   49.2572 C.ar    1  ZINC001141221454   -0.1200
      7 C7         -4.4990    2.4271   50.3512 C.ar    1  ZINC001141221454   -0.0800
      8 C8         -3.0754    1.9377   50.4207 C.3     1  ZINC001141221454    0.0900
      9 N9         -2.5983    1.6257   49.0668 N.3     1  ZINC001141221454   -0.5100
     10 C10        -1.6887    2.6880   48.5647 C.3     1  ZINC001141221454    0.0300
     11 C11        -0.8942    1.9763   47.4389 C.3     1  ZINC001141221454   -0.0700
     12 C12        -0.7071    0.5556   48.0024 C.3     1  ZINC001141221454   -0.1000
     13 C13         0.6811   -0.0445   48.1834 C.3     1  ZINC001141221454   -0.1400
     14 C14        -0.2618   -0.5951   47.1096 C.3     1  ZINC001141221454   -0.1800
     15 H15        -0.7106   -1.5725   47.2866 H       1  ZINC001141221454    0.1300
     16 C16         0.0594   -0.2779   45.6718 C.2     1  ZINC001141221454    0.5500
     17 O17        -0.7367   -0.5500   44.7983 O.2     1  ZINC001141221454   -0.5300
     18 N18         1.2314    0.3083   45.3567 N.am    1  ZINC001141221454   -0.7300
     19 C19         1.5444    0.6151   43.9588 C.3     1  ZINC001141221454    0.1700
     20 C20         1.8292    2.0884   43.8195 C.ar    1  ZINC001141221454   -0.1600
     21 C21         0.9378    3.0258   44.3178 C.ar    1  ZINC001141221454   -0.0600
     22 C22         1.2413    4.3705   44.1673 C.ar    1  ZINC001141221454   -0.1700
     23 C23         2.4138    4.7289   43.5301 C.ar    1  ZINC001141221454    0.1100
     24 N24         3.2389    3.8094   43.0681 N.ar    1  ZINC001141221454   -0.4800
     25 C25         2.9853    2.5220   43.1981 C.ar    1  ZINC001141221454    0.1200
     26 C26        -1.8042    0.3756   49.0588 C.3     1  ZINC001141221454    0.0700
     27 C27        -5.3762    2.1506   51.3840 C.ar    1  ZINC001141221454    0.0900
     28 F28        -4.9593    1.4372   52.4529 F       1  ZINC001141221454   -0.1300
     29 H29        -9.1986    2.9476   53.4141 H       1  ZINC001141221454    0.1000
     30 H30        -8.1195    4.2431   52.8434 H       1  ZINC001141221454    0.0600
     31 H31        -9.1958    3.4109   51.6955 H       1  ZINC001141221454    0.0600
     32 H32        -8.1336    3.6811   50.1631 H       1  ZINC001141221454    0.1400
     33 H33        -6.5622    4.1769   48.3343 H       1  ZINC001141221454    0.1300
     34 H34        -4.2388    3.3764   48.4536 H       1  ZINC001141221454    0.1300
     35 H35        -2.4458    2.7123   50.8583 H       1  ZINC001141221454    0.0600
     36 H36        -3.0295    1.0404   51.0378 H       1  ZINC001141221454    0.0900
     37 H37        -2.2601    3.5244   48.1622 H       1  ZINC001141221454    0.0800
     38 H38        -1.0177    3.0245   49.3551 H       1  ZINC001141221454    0.0500
     39 H39        -1.4712    1.9523   46.5145 H       1  ZINC001141221454    0.0900
     40 H40         0.0700    2.4597   47.2814 H       1  ZINC001141221454    0.0700
     41 H41         1.5331    0.5477   47.8497 H       1  ZINC001141221454    0.1000
     42 H42         0.8525   -0.6599   49.0667 H       1  ZINC001141221454    0.1100
     43 H43         1.8676    0.5271   46.0555 H       1  ZINC001141221454    0.4000
     44 H44         2.4201    0.0449   43.6490 H       1  ZINC001141221454    0.0800
     45 H45         0.6956    0.3480   43.3293 H       1  ZINC001141221454    0.0800
     46 H46         0.0283    2.7162   44.8114 H       1  ZINC001141221454    0.1400
     47 H47         0.5696    5.1281   44.5431 H       1  ZINC001141221454    0.1400
     48 H48         2.6573    5.7740   43.4085 H       1  ZINC001141221454    0.1600
     49 H49         3.6847    1.7981   42.8069 H       1  ZINC001141221454    0.1600
     50 H50        -1.3553    0.2128   50.0387 H       1  ZINC001141221454    0.0500
     51 H51        -2.4409   -0.4689   48.7951 H       1  ZINC001141221454    0.0900
@<TRIPOS>BOND
     1     1     2    1
     2     1    29    1
     3     1    30    1
     4     1    31    1
     5     2     3    1
     6     3    27   ar
     7     3     4   ar
     8     4     5   ar
     9     4    32    1
    10     5     6   ar
    11     5    33    1
    12     6     7   ar
    13     6    34    1
    14     7     8    1
    15     7    27   ar
    16     8     9    1
    17     8    35    1
    18     8    36    1
    19     9    26    1
    20     9    10    1
    21    10    11    1
    22    10    37    1
    23    10    38    1
    24    11    12    1
    25    11    39    1
    26    11    40    1
    27    12    14    1
    28    12    13    1
    29    12    26    1
    30    13    14    1
    31    13    41    1
    32    13    42    1
    33    14    15    1
    34    14    16    1
    35    16    17    2
    36    16    18   am
    37    18    19    1
    38    18    43    1
    39    19    20    1
    40    19    44    1
    41    19    45    1
    42    20    25   ar
    43    20    21   ar
    44    21    22   ar
    45    21    46    1
    46    22    23   ar
    47    22    47    1
    48    23    24   ar
    49    23    48    1
    50    24    25   ar
    51    25    49    1
    52    26    50    1
    53    26    51    1
    54    27    28    1
@<TRIPOS>SUBSTRUCTURE
     1 ZINC001141221454        1 TEMP              0 ****  ****    0 ROOT


##########                                Name:    ZINC000816269301
##########                DOCK_Rotatable_Bonds:                   7
##########                         Heavy_Atoms:                  25
##########                    Molecular_Weight:             358.784
##########                DOCK_Rotatable_Bonds:                   7
##########                       Formal_Charge:           0.0100002
##########                     HBond_Acceptors:                   8
##########                        HBond_Donors:                   1
##########                         Heavy_Atoms:                  25
##########                          Grid_Score:          -30.074348
##########                     Grid_vdw_energy:          -27.935776
##########                      Grid_es_energy:           -2.138573
##########           Internal_energy_repulsive:            5.052576

@<TRIPOS>MOLECULE
ZINC000816269301
 40 42 1 0 0
SMALL
USER_CHARGES


@<TRIPOS>ATOM
      1 C1         -5.6026    2.4480   51.8550 C.3     1  ZINC000816269301    0.1000
      2 N2         -6.4371    1.2451   51.7995 N.pl3   1  ZINC000816269301   -0.4000
      3 N3         -6.0246   -0.0437   51.4319 N.2     1  ZINC000816269301    0.0000
      4 N4         -7.0244   -0.8503   51.4985 N.2     1  ZINC000816269301   -0.2000
      5 C5         -8.1339   -0.1852   51.8995 C.ar    1  ZINC000816269301   -0.0300
      6 C6         -9.4541   -0.5826   52.1274 C.ar    1  ZINC000816269301    0.0500
      7 C7        -10.3902    0.3560   52.5450 C.ar    1  ZINC000816269301   -0.1400
      8 C8        -11.7863   -0.0562   52.7882 C.2     1  ZINC000816269301    0.5200
      9 O9        -12.0271   -0.9543   53.5700 O.2     1  ZINC000816269301   -0.5000
     10 O10       -12.7938    0.5637   52.1433 O.3     1  ZINC000816269301   -0.3500
     11 C11       -12.5948    0.8547   50.7348 C.3     1  ZINC000816269301    0.0500
     12 C12       -13.9361    1.2175   50.0944 C.3     1  ZINC000816269301    0.1200
     13 N13       -13.7328    1.5263   48.6769 N.am    1  ZINC000816269301   -0.7200
     14 C14       -14.7086    1.2669   47.7840 C.2     1  ZINC000816269301    0.5600
     15 O15       -15.7578    0.7781   48.1553 O.2     1  ZINC000816269301   -0.5300
     16 C16       -14.5028    1.5768   46.3538 C.ar    1  ZINC000816269301   -0.1300
     17 C17       -15.5322    1.3630   45.4352 C.ar    1  ZINC000816269301   -0.0700
     18 C18       -15.3342    1.6541   44.1019 C.ar    1  ZINC000816269301   -0.1200
     19 C19       -14.1170    2.1576   43.6735 C.ar    1  ZINC000816269301   -0.0100
     20 Cl20      -13.8754    2.5222   41.9934 Cl      1  ZINC000816269301   -0.0600
     21 C21       -13.0920    2.3718   44.5801 C.ar    1  ZINC000816269301   -0.1200
     22 C22       -13.2801    2.0900   45.9168 C.ar    1  ZINC000816269301   -0.0500
     23 C23       -10.0132    1.6934   52.7365 C.ar    1  ZINC000816269301   -0.0200
     24 C24        -8.7272    2.0868   52.5158 C.ar    1  ZINC000816269301   -0.1300
     25 C25        -7.7730    1.1600   52.1029 C.ar    1  ZINC000816269301    0.1100
     26 H26        -5.1601    2.5378   52.8471 H       1  ZINC000816269301    0.0900
     27 H27        -4.8108    2.3757   51.1092 H       1  ZINC000816269301    0.1000
     28 H28        -6.2159    3.3255   51.6498 H       1  ZINC000816269301    0.1000
     29 H29        -9.7451   -1.6122   51.9798 H       1  ZINC000816269301    0.1600
     30 H30       -11.9042    1.6916   50.6307 H       1  ZINC000816269301    0.0800
     31 H31       -12.1802   -0.0224   50.2377 H       1  ZINC000816269301    0.1000
     32 H32       -14.6229    0.3762   50.1881 H       1  ZINC000816269301    0.1000
     33 H33       -14.3562    2.0874   50.5992 H       1  ZINC000816269301    0.0900
     34 H34       -12.8960    1.9175   48.3808 H       1  ZINC000816269301    0.4000
     35 H35       -16.4815    0.9701   45.7680 H       1  ZINC000816269301    0.1400
     36 H36       -16.1296    1.4888   43.3903 H       1  ZINC000816269301    0.1400
     37 H37       -12.1451    2.7647   44.2402 H       1  ZINC000816269301    0.1400
     38 H38       -12.4803    2.2578   46.6229 H       1  ZINC000816269301    0.1500
     39 H39       -10.7471    2.4164   53.0608 H       1  ZINC000816269301    0.1500
     40 H40        -8.4462    3.1188   52.6660 H       1  ZINC000816269301    0.1400
@<TRIPOS>BOND
     1     1     2    1
     2     1    26    1
     3     1    27    1
     4     1    28    1
     5     2    25    1
     6     2     3    1
     7     3     4    2
     8     4     5    1
     9     5    25   ar
    10     5     6   ar
    11     6     7   ar
    12     6    29    1
    13     7     8    1
    14     7    23   ar
    15     8     9    2
    16     8    10    1
    17    10    11    1
    18    11    12    1
    19    11    30    1
    20    11    31    1
    21    12    13    1
    22    12    32    1
    23    12    33    1
    24    13    14   am
    25    13    34    1
    26    14    15    2
    27    14    16    1
    28    16    22   ar
    29    16    17   ar
    30    17    18   ar
    31    17    35    1
    32    18    19   ar
    33    18    36    1
    34    19    20    1
    35    19    21   ar
    36    21    22   ar
    37    21    37    1
    38    22    38    1
    39    23    24   ar
    40    23    39    1
    41    24    25   ar
    42    24    40    1
@<TRIPOS>SUBSTRUCTURE
     1 ZINC000816269301        1 TEMP              0 ****  ****    0 ROOT


##########                                Name:    ZINC000186105981
##########                DOCK_Rotatable_Bonds:                   6
##########                         Heavy_Atoms:                  26
##########                    Molecular_Weight:             396.873
##########                DOCK_Rotatable_Bonds:                   6
##########                       Formal_Charge:          -0.0400003
##########                     HBond_Acceptors:                   9
##########                        HBond_Donors:                   1
##########                         Heavy_Atoms:                  26
##########                          Grid_Score:          -30.049715
##########                     Grid_vdw_energy:          -30.428364
##########                      Grid_es_energy:            0.378649
##########           Internal_energy_repulsive:           19.699137

@<TRIPOS>MOLECULE
ZINC000186105981
 44 46 1 0 0
SMALL
USER_CHARGES


@<TRIPOS>ATOM
      1 C1          1.6245   -0.3166   47.9103 C.3     1  ZINC000186105981   -0.1400
      2 C2          0.1184   -0.1395   48.1137 C.3     1  ZINC000186105981   -0.1100
      3 C3         -0.4019   -1.2326   49.0493 C.3     1  ZINC000186105981   -0.1600
      4 C4         -0.1548    1.2332   48.7317 C.3     1  ZINC000186105981    0.1600
      5 H5          0.3476    1.3039   49.6964 H       1  ZINC000186105981    0.1200
      6 C6         -1.6389    1.4111   48.9240 C.2     1  ZINC000186105981    0.4900
      7 O7         -2.4172    0.8837   48.1579 O.2     1  ZINC000186105981   -0.4300
      8 N8         -2.1013    2.1565   49.9473 N.am    1  ZINC000186105981   -0.6300
      9 C9         -3.4698    2.3206   50.1246 C.2     1  ZINC000186105981    0.2400
     10 N10        -4.3460    2.5276   49.1831 N.2     1  ZINC000186105981   -0.2600
     11 N11        -5.5537    2.6540   49.5233 N.2     1  ZINC000186105981   -0.2000
     12 C12        -5.8375    2.5682   50.7927 C.2     1  ZINC000186105981    0.0300
     13 C13        -7.1825    2.6865   51.3941 C.ar    1  ZINC000186105981   -0.0500
     14 C14        -7.7294    1.6165   52.1072 C.ar    1  ZINC000186105981    0.1300
     15 F15        -7.0301    0.4692   52.2494 F       1  ZINC000186105981   -0.1200
     16 C16        -8.9876    1.7350   52.6670 C.ar    1  ZINC000186105981   -0.1400
     17 C17        -9.7041    2.9091   52.5226 C.ar    1  ZINC000186105981   -0.0600
     18 C18        -9.1685    3.9722   51.8174 C.ar    1  ZINC000186105981   -0.1200
     19 C19        -7.9106    3.8706   51.2575 C.ar    1  ZINC000186105981    0.0200
     20 Cl20       -7.2411    5.2064   50.3737 Cl      1  ZINC000186105981   -0.0100
     21 S21        -4.3308    2.2780   51.6644 S.3     1  ZINC000186105981    0.1200
     22 N22         0.3509    2.2796   47.8399 N.am    1  ZINC000186105981   -0.6100
     23 C23         1.3926    3.2469   48.2052 C.3     1  ZINC000186105981    0.1000
     24 C24         1.8954    3.8356   46.8685 C.3     1  ZINC000186105981   -0.1300
     25 C25         0.6660    3.6338   45.9527 C.3     1  ZINC000186105981   -0.1600
     26 C26        -0.0752    2.4737   46.5799 C.2     1  ZINC000186105981    0.5200
     27 O27        -0.9343    1.8187   46.0286 O.2     1  ZINC000186105981   -0.5000
     28 H28         1.8190   -1.2945   47.4701 H       1  ZINC000186105981    0.0600
     29 H29         1.9951    0.4622   47.2439 H       1  ZINC000186105981    0.0600
     30 H30         2.1321   -0.2435   48.8721 H       1  ZINC000186105981    0.0600
     31 H31        -0.3892   -0.2125   47.1519 H       1  ZINC000186105981    0.0900
     32 H32         0.0358   -1.1025   50.0390 H       1  ZINC000186105981    0.0600
     33 H33        -1.4874   -1.1638   49.1201 H       1  ZINC000186105981    0.0600
     34 H34        -0.1248   -2.2104   48.6552 H       1  ZINC000186105981    0.0700
     35 H35        -1.4787    2.5784   50.5600 H       1  ZINC000186105981    0.4200
     36 H36        -9.4121    0.9091   53.2183 H       1  ZINC000186105981    0.1500
     37 H37       -10.6867    2.9963   52.9622 H       1  ZINC000186105981    0.1500
     38 H38        -9.7342    4.8858   51.7085 H       1  ZINC000186105981    0.1500
     39 H39         0.9729    4.0350   48.8304 H       1  ZINC000186105981    0.0700
     40 H40         2.2075    2.7446   48.7266 H       1  ZINC000186105981    0.0800
     41 H41         2.1340    4.8940   46.9735 H       1  ZINC000186105981    0.0900
     42 H42         2.7551    3.2787   46.4958 H       1  ZINC000186105981    0.0800
     43 H43         0.0447    4.5293   45.9453 H       1  ZINC000186105981    0.1100
     44 H44         0.9817    3.3789   44.9410 H       1  ZINC000186105981    0.1000
@<TRIPOS>BOND
     1     1     2    1
     2     1    28    1
     3     1    29    1
     4     1    30    1
     5     2     3    1
     6     2     4    1
     7     2    31    1
     8     3    32    1
     9     3    33    1
    10     3    34    1
    11     4     5    1
    12     4     6    1
    13     4    22    1
    14     6     7    2
    15     6     8   am
    16     8     9    1
    17     8    35    1
    18     9    21    1
    19     9    10    2
    20    10    11    1
    21    11    12    2
    22    12    13    1
    23    12    21    1
    24    13    19   ar
    25    13    14   ar
    26    14    15    1
    27    14    16   ar
    28    16    17   ar
    29    16    36    1
    30    17    18   ar
    31    17    37    1
    32    18    19   ar
    33    18    38    1
    34    19    20    1
    35    22    26   am
    36    22    23    1
    37    23    24    1
    38    23    39    1
    39    23    40    1
    40    24    25    1
    41    24    41    1
    42    24    42    1
    43    25    26    1
    44    25    43    1
    45    25    44    1
    46    26    27    2
@<TRIPOS>SUBSTRUCTURE
     1 ZINC000186105981        1 TEMP              0 ****  ****    0 ROOT


##########                                Name:    ZINC001401207732
##########                DOCK_Rotatable_Bonds:                   8
##########                         Heavy_Atoms:                  23
##########                    Molecular_Weight:             337.446
##########                DOCK_Rotatable_Bonds:                   8
##########                       Formal_Charge:          -0.0199995
##########                     HBond_Acceptors:                   8
##########                        HBond_Donors:                   1
##########                         Heavy_Atoms:                  23
##########                          Grid_Score:          -30.023758
##########                     Grid_vdw_energy:          -30.068039
##########                      Grid_es_energy:            0.044281
##########           Internal_energy_repulsive:           17.299261

@<TRIPOS>MOLECULE
ZINC001401207732
 46 47 1 0 0
SMALL
USER_CHARGES


@<TRIPOS>ATOM
      1 C1         -9.5965    2.9071   53.9191 C.3     1  ZINC001401207732   -0.0900
      2 C2         -8.9549    1.8158   53.1014 C.2     1  ZINC001401207732    0.1500
      3 C3         -7.6203    1.7602   52.8645 C.2     1  ZINC001401207732   -0.3000
      4 C4         -6.6161    2.7156   53.3446 C.2     1  ZINC001401207732    0.6100
      5 O5         -6.1211    2.5752   54.4474 O.2     1  ZINC001401207732   -0.5200
      6 N6         -6.2418    3.7489   52.5645 N.am    1  ZINC001401207732   -0.5900
      7 C7         -5.2389    4.7030   53.0441 C.3     1  ZINC001401207732    0.0700
      8 C8         -6.8377    3.9179   51.2370 C.3     1  ZINC001401207732    0.1400
      9 H9         -7.5211    3.0925   51.0377 H       1  ZINC001401207732    0.1100
     10 C10        -7.6066    5.2398   51.1876 C.3     1  ZINC001401207732   -0.1600
     11 C11        -5.7321    3.9312   50.1794 C.3     1  ZINC001401207732    0.0500
     12 N12        -5.7116    2.6416   49.4762 N.3     1  ZINC001401207732   -0.6800
     13 C13        -4.7612    1.7143   50.1048 C.3     1  ZINC001401207732    0.1500
     14 C14        -3.5025    1.6487   49.2787 C.2     1  ZINC001401207732    0.1800
     15 N15        -2.6340    0.6666   49.2556 N.2     1  ZINC001401207732   -0.4800
     16 C16        -1.6835    1.0445   48.3822 C.2     1  ZINC001401207732    0.1800
     17 C17        -0.4574    0.2552   48.0015 C.3     1  ZINC001401207732   -0.0100
     18 C18         0.7758    1.1568   48.0853 C.3     1  ZINC001401207732   -0.1500
     19 C19        -0.2924   -0.9251   48.9609 C.3     1  ZINC001401207732   -0.1500
     20 N20        -2.0163    2.2154   47.9273 N.2     1  ZINC001401207732   -0.3800
     21 O21        -3.0612    2.5778   48.4254 O.3     1  ZINC001401207732    0.0900
     22 S22        -7.3102    0.3388   51.8703 S.3     1  ZINC001401207732    0.1800
     23 C23        -8.9767   -0.0419   51.8783 C.2     1  ZINC001401207732    0.0100
     24 N24        -9.6373    0.8389   52.5588 N.2     1  ZINC001401207732   -0.4800
     25 H25        -9.8788    3.7326   53.2655 H       1  ZINC001401207732    0.0800
     26 H26       -10.4850    2.5154   54.4142 H       1  ZINC001401207732    0.0800
     27 H27        -8.8897    3.2625   54.6689 H       1  ZINC001401207732    0.1000
     28 H28        -5.7235    5.4606   53.6601 H       1  ZINC001401207732    0.0600
     29 H29        -4.4908    4.1767   53.6369 H       1  ZINC001401207732    0.0800
     30 H30        -4.7563    5.1818   52.1921 H       1  ZINC001401207732    0.0900
     31 H31        -8.0500    5.3654   50.1998 H       1  ZINC001401207732    0.0700
     32 H32        -8.3943    5.2302   51.9409 H       1  ZINC001401207732    0.0700
     33 H33        -6.9232    6.0652   51.3868 H       1  ZINC001401207732    0.0600
     34 H34        -4.7692    4.0968   50.6627 H       1  ZINC001401207732    0.0800
     35 H35        -5.9224    4.7318   49.4648 H       1  ZINC001401207732    0.0500
     36 H36        -5.5010    2.7668   48.4974 H       1  ZINC001401207732    0.3600
     37 H37        -5.2081    0.7220   50.1655 H       1  ZINC001401207732    0.1100
     38 H38        -4.5197    2.0661   51.1078 H       1  ZINC001401207732    0.0800
     39 H39        -0.5668   -0.1171   46.9828 H       1  ZINC001401207732    0.1000
     40 H40         1.6626    0.5859   47.8099 H       1  ZINC001401207732    0.0700
     41 H41         0.6583    1.9977   47.4017 H       1  ZINC001401207732    0.0600
     42 H42         0.8853    1.5290   49.1039 H       1  ZINC001401207732    0.0600
     43 H43        -1.1710   -1.5674   48.9013 H       1  ZINC001401207732    0.0600
     44 H44         0.5943   -1.4960   48.6855 H       1  ZINC001401207732    0.0700
     45 H45        -0.1830   -0.5528   49.9795 H       1  ZINC001401207732    0.0600
     46 H46        -9.4168   -0.8940   51.3817 H       1  ZINC001401207732    0.2000
@<TRIPOS>BOND
     1     1     2    1
     2     1    25    1
     3     1    26    1
     4     1    27    1
     5     2    24    1
     6     2     3    2
     7     3     4    1
     8     3    22    1
     9     4     5    2
    10     4     6   am
    11     6     7    1
    12     6     8    1
    13     7    28    1
    14     7    29    1
    15     7    30    1
    16     8     9    1
    17     8    10    1
    18     8    11    1
    19    10    31    1
    20    10    32    1
    21    10    33    1
    22    11    12    1
    23    11    34    1
    24    11    35    1
    25    12    13    1
    26    12    36    1
    27    13    14    1
    28    13    37    1
    29    13    38    1
    30    14    21    1
    31    14    15    2
    32    15    16    1
    33    16    17    1
    34    16    20    2
    35    17    18    1
    36    17    19    1
    37    17    39    1
    38    18    40    1
    39    18    41    1
    40    18    42    1
    41    19    43    1
    42    19    44    1
    43    19    45    1
    44    20    21    1
    45    22    23    1
    46    23    24    2
    47    23    46    1
@<TRIPOS>SUBSTRUCTURE
     1 ZINC001401207732        1 TEMP              0 ****  ****    0 ROOT


##########                                Name:    ZINC001492779707
##########                DOCK_Rotatable_Bonds:                   8
##########                         Heavy_Atoms:                  27
##########                    Molecular_Weight:             374.483
##########                DOCK_Rotatable_Bonds:                   8
##########                       Formal_Charge:           0.0199998
##########                     HBond_Acceptors:                   7
##########                        HBond_Donors:                   0
##########                         Heavy_Atoms:                  27
##########                          Grid_Score:          -30.019478
##########                     Grid_vdw_energy:          -28.868692
##########                      Grid_es_energy:           -1.150786
##########           Internal_energy_repulsive:            8.591956

@<TRIPOS>MOLECULE
ZINC001492779707
 57 59 1 0 0
SMALL
USER_CHARGES


@<TRIPOS>ATOM
      1 C1        -15.8428   -2.6239   55.8213 C.3     1  ZINC001492779707   -0.0700
      2 C2        -15.2368   -2.3358   57.1706 C.2     1  ZINC001492779707    0.1800
      3 N3        -15.5127   -2.9476   58.2876 N.2     1  ZINC001492779707   -0.2900
      4 N4        -14.8151   -2.4508   59.2461 N.2     1  ZINC001492779707   -0.3100
      5 C5        -14.0505   -1.4877   58.7882 C.2     1  ZINC001492779707    0.3400
      6 N6        -13.1619   -0.7206   59.5248 N.3     1  ZINC001492779707   -0.4600
      7 C7        -13.8329    0.4504   60.1051 C.3     1  ZINC001492779707    0.0300
      8 C8        -12.5110   -1.5248   60.5675 C.3     1  ZINC001492779707    0.1100
      9 C9        -11.0458   -1.1773   60.6284 C.ar    1  ZINC001492779707   -0.0400
     10 C10       -10.1205   -1.9684   59.9732 C.ar    1  ZINC001492779707   -0.1300
     11 C11        -8.7754   -1.6522   60.0272 C.ar    1  ZINC001492779707   -0.0800
     12 C12        -8.3530   -0.5448   60.7363 C.ar    1  ZINC001492779707   -0.2100
     13 C13        -9.2797    0.2508   61.3948 C.ar    1  ZINC001492779707    0.1300
     14 O14        -8.8666    1.3413   62.0928 O.3     1  ZINC001492779707   -0.3100
     15 C15        -8.1749    1.1021   63.3202 C.3     1  ZINC001492779707    0.0800
     16 C16        -7.2954    2.3090   63.6534 C.3     1  ZINC001492779707   -0.1500
     17 C17        -9.1902    0.8851   64.4439 C.3     1  ZINC001492779707   -0.1800
     18 C18       -10.6289   -0.0652   61.3345 C.ar    1  ZINC001492779707   -0.1400
     19 N19       -14.2912   -1.3880   57.4488 N.pl3   1  ZINC001492779707   -0.4600
     20 C20       -13.6722   -0.4531   56.5059 C.3     1  ZINC001492779707    0.1200
     21 C21       -12.4044   -1.0808   55.9233 C.3     1  ZINC001492779707   -0.1200
     22 C22       -12.0536   -0.3903   54.6038 C.3     1  ZINC001492779707    0.0600
     23 H23       -12.9588   -0.2532   54.0124 H       1  ZINC001492779707    0.0800
     24 C24       -11.4195    0.9735   54.8926 C.3     1  ZINC001492779707    0.0300
     25 O25       -10.9931    1.5632   53.6608 O.3     1  ZINC001492779707   -0.3800
     26 C26       -10.0619    0.7575   52.9323 C.3     1  ZINC001492779707    0.0200
     27 C27       -10.6959   -0.6062   52.6434 C.3     1  ZINC001492779707    0.0300
     28 O28       -11.1235   -1.1967   53.8746 O.3     1  ZINC001492779707   -0.3800
     29 H29       -15.2466   -3.3791   55.3090 H       1  ZINC001492779707    0.0900
     30 H30       -16.8608   -2.9913   55.9511 H       1  ZINC001492779707    0.1000
     31 H31       -15.8593   -1.7098   55.2278 H       1  ZINC001492779707    0.0800
     32 H32       -14.5630    0.1213   60.8446 H       1  ZINC001492779707    0.0500
     33 H33       -13.0938    1.0920   60.5848 H       1  ZINC001492779707    0.0900
     34 H34       -14.3398    1.0065   59.3166 H       1  ZINC001492779707    0.0700
     35 H35       -12.9747   -1.3143   61.5312 H       1  ZINC001492779707    0.0700
     36 H36       -12.6239   -2.5834   60.3334 H       1  ZINC001492779707    0.0900
     37 H37       -10.4488   -2.8350   59.4185 H       1  ZINC001492779707    0.1200
     38 H38        -8.0545   -2.2721   59.5148 H       1  ZINC001492779707    0.1300
     39 H39        -7.3023   -0.2985   60.7785 H       1  ZINC001492779707    0.1300
     40 H40        -7.5504    0.2147   63.2183 H       1  ZINC001492779707    0.0700
     41 H41        -7.9200    3.1966   63.7553 H       1  ZINC001492779707    0.0700
     42 H42        -6.7678    2.1266   64.5896 H       1  ZINC001492779707    0.0800
     43 H43        -6.5722    2.4637   62.8528 H       1  ZINC001492779707    0.0700
     44 H44        -9.8167    0.0253   64.2065 H       1  ZINC001492779707    0.0600
     45 H45        -8.6624    0.7027   65.3801 H       1  ZINC001492779707    0.0700
     46 H46        -9.8147    1.7726   64.5458 H       1  ZINC001492779707    0.0700
     47 H47       -11.3521    0.5524   61.8461 H       1  ZINC001492779707    0.1300
     48 H48       -14.3723   -0.2330   55.7000 H       1  ZINC001492779707    0.1000
     49 H49       -13.4148    0.4698   57.0258 H       1  ZINC001492779707    0.1000
     50 H50       -11.5816   -0.9582   56.6275 H       1  ZINC001492779707    0.0900
     51 H51       -12.5741   -2.1424   55.7439 H       1  ZINC001492779707    0.0800
     52 H52       -12.1527    1.6218   55.3724 H       1  ZINC001492779707    0.1100
     53 H53       -10.5605    0.8438   55.5510 H       1  ZINC001492779707    0.0600
     54 H54        -9.8120    1.2495   51.9923 H       1  ZINC001492779707    0.1100
     55 H55        -9.1573    0.6206   53.5246 H       1  ZINC001492779707    0.0600
     56 H56       -11.5550   -0.4765   51.9851 H       1  ZINC001492779707    0.0600
     57 H57        -9.9628   -1.2546   52.1637 H       1  ZINC001492779707    0.1100
@<TRIPOS>BOND
     1     1     2    1
     2     1    29    1
     3     1    30    1
     4     1    31    1
     5     2    19    1
     6     2     3    2
     7     3     4    1
     8     4     5    2
     9     5     6    1
    10     5    19    1
    11     6     7    1
    12     6     8    1
    13     7    32    1
    14     7    33    1
    15     7    34    1
    16     8     9    1
    17     8    35    1
    18     8    36    1
    19     9    18   ar
    20     9    10   ar
    21    10    11   ar
    22    10    37    1
    23    11    12   ar
    24    11    38    1
    25    12    13   ar
    26    12    39    1
    27    13    14    1
    28    13    18   ar
    29    14    15    1
    30    15    16    1
    31    15    17    1
    32    15    40    1
    33    16    41    1
    34    16    42    1
    35    16    43    1
    36    17    44    1
    37    17    45    1
    38    17    46    1
    39    18    47    1
    40    19    20    1
    41    20    21    1
    42    20    48    1
    43    20    49    1
    44    21    22    1
    45    21    50    1
    46    21    51    1
    47    22    23    1
    48    22    28    1
    49    22    24    1
    50    24    25    1
    51    24    52    1
    52    24    53    1
    53    25    26    1
    54    26    27    1
    55    26    54    1
    56    26    55    1
    57    27    28    1
    58    27    56    1
    59    27    57    1
@<TRIPOS>SUBSTRUCTURE
     1 ZINC001492779707        1 TEMP              0 ****  ****    0 ROOT


##########                                Name:    ZINC001162683355
##########                DOCK_Rotatable_Bonds:                   5
##########                         Heavy_Atoms:                  25
##########                    Molecular_Weight:             336.437
##########                DOCK_Rotatable_Bonds:                   5
##########                       Formal_Charge:          -0.0100002
##########                     HBond_Acceptors:                   5
##########                        HBond_Donors:                   1
##########                         Heavy_Atoms:                  25
##########                          Grid_Score:          -30.018587
##########                     Grid_vdw_energy:          -29.736601
##########                      Grid_es_energy:           -0.281987
##########           Internal_energy_repulsive:           10.820892

@<TRIPOS>MOLECULE
ZINC001162683355
 49 52 1 0 0
SMALL
USER_CHARGES


@<TRIPOS>ATOM
      1 C1          1.3911    1.7495   44.7232 C.3     1  ZINC001162683355    0.0200
      2 N2          0.9888    0.5339   45.4432 N.3     1  ZINC001162683355   -0.5400
      3 C3         -0.3588    0.1051   45.0414 C.3     1  ZINC001162683355    0.0100
      4 C4         -0.7132   -1.1944   45.7692 C.3     1  ZINC001162683355    0.0600
      5 O5         -0.6089   -0.9882   47.1805 O.3     1  ZINC001162683355   -0.3800
      6 C6          0.6907   -0.5704   47.6069 C.3     1  ZINC001162683355    0.0800
      7 H7          1.4208   -1.3401   47.3563 H       1  ZINC001162683355    0.0700
      8 C8          0.6842   -0.3458   49.1203 C.3     1  ZINC001162683355    0.1500
      9 N9         -0.1406    0.8228   49.4371 N.pl3   1  ZINC001162683355   -0.7300
     10 C10         0.2679    1.7158   50.4215 C.ar    1  ZINC001162683355    0.4300
     11 C11        -0.6207    2.6826   50.8979 C.ar    1  ZINC001162683355   -0.0100
     12 C12        -0.1749    3.5702   51.8942 C.ar    1  ZINC001162683355   -0.0400
     13 C13         1.1389    3.4473   52.3662 C.ar    1  ZINC001162683355   -0.1800
     14 C14         1.9381    2.4727   51.8432 C.ar    1  ZINC001162683355    0.1000
     15 N15         1.4971    1.6481   50.9054 N.ar    1  ZINC001162683355   -0.5400
     16 C16        -1.3019    4.4504   52.1876 C.2     1  ZINC001162683355   -0.2200
     17 C17        -2.3151    4.0702   51.3888 C.2     1  ZINC001162683355    0.0800
     18 N18        -1.9268    3.0128   50.6165 N.pl3   1  ZINC001162683355   -0.4600
     19 C19        -2.7727    2.3350   49.6309 C.3     1  ZINC001162683355    0.1500
     20 C20        -4.2083    2.3773   50.0873 C.ar    1  ZINC001162683355   -0.1100
     21 C21        -5.1802    2.9120   49.2625 C.ar    1  ZINC001162683355   -0.1000
     22 C22        -6.4978    2.9469   49.6794 C.ar    1  ZINC001162683355   -0.1200
     23 C23        -6.8419    2.4554   50.9247 C.ar    1  ZINC001162683355   -0.1100
     24 C24        -5.8692    1.9255   51.7517 C.ar    1  ZINC001162683355   -0.1200
     25 C25        -4.5523    1.8866   51.3330 C.ar    1  ZINC001162683355   -0.1000
     26 C26         1.0593    0.7354   46.8977 C.3     1  ZINC001162683355    0.0300
     27 H27         0.7299    2.5709   44.9994 H       1  ZINC001162683355    0.0300
     28 H28         2.4174    2.0050   44.9866 H       1  ZINC001162683355    0.0700
     29 H29         1.3243    1.5747   43.6494 H       1  ZINC001162683355    0.0700
     30 H30        -0.3813   -0.0629   43.9647 H       1  ZINC001162683355    0.0900
     31 H31        -1.0804    0.8783   45.3050 H       1  ZINC001162683355    0.0500
     32 H32        -0.0238   -1.9818   45.4644 H       1  ZINC001162683355    0.0600
     33 H33        -1.7330   -1.4863   45.5183 H       1  ZINC001162683355    0.1000
     34 H34         1.7036   -0.1756   49.4667 H       1  ZINC001162683355    0.0700
     35 H35         0.2740   -1.2254   49.6164 H       1  ZINC001162683355    0.0800
     36 H36        -0.9717    0.9734   48.9602 H       1  ZINC001162683355    0.4000
     37 H37         1.5124    4.1122   53.1308 H       1  ZINC001162683355    0.1300
     38 H38         2.9517    2.3714   52.2019 H       1  ZINC001162683355    0.1500
     39 H39        -1.3177    5.2566   52.9060 H       1  ZINC001162683355    0.1500
     40 H40        -3.2914    4.5312   51.3636 H       1  ZINC001162683355    0.1700
     41 H41        -2.4538    1.2975   49.5306 H       1  ZINC001162683355    0.0900
     42 H42        -2.6826    2.8376   48.6679 H       1  ZINC001162683355    0.0900
     43 H43        -4.9108    3.2995   48.2911 H       1  ZINC001162683355    0.1200
     44 H44        -7.2579    3.3606   49.0332 H       1  ZINC001162683355    0.1300
     45 H45        -7.8709    2.4851   51.2514 H       1  ZINC001162683355    0.1300
     46 H46        -6.1381    1.5415   52.7246 H       1  ZINC001162683355    0.1300
     47 H47        -3.7923    1.4727   51.9791 H       1  ZINC001162683355    0.1200
     48 H48         0.3604    1.5187   47.1910 H       1  ZINC001162683355    0.0500
     49 H49         2.0719    1.0274   47.1761 H       1  ZINC001162683355    0.0900
@<TRIPOS>BOND
     1     1     2    1
     2     1    27    1
     3     1    28    1
     4     1    29    1
     5     2    26    1
     6     2     3    1
     7     3     4    1
     8     3    30    1
     9     3    31    1
    10     4     5    1
    11     4    32    1
    12     4    33    1
    13     5     6    1
    14     6     7    1
    15     6     8    1
    16     6    26    1
    17     8     9    1
    18     8    34    1
    19     8    35    1
    20     9    10    1
    21     9    36    1
    22    10    15   ar
    23    10    11   ar
    24    11    18    1
    25    11    12   ar
    26    12    13   ar
    27    12    16    1
    28    13    14   ar
    29    13    37    1
    30    14    15   ar
    31    14    38    1
    32    16    17    2
    33    16    39    1
    34    17    18    1
    35    17    40    1
    36    18    19    1
    37    19    20    1
    38    19    41    1
    39    19    42    1
    40    20    25   ar
    41    20    21   ar
    42    21    22   ar
    43    21    43    1
    44    22    23   ar
    45    22    44    1
    46    23    24   ar
    47    23    45    1
    48    24    25   ar
    49    24    46    1
    50    25    47    1
    51    26    48    1
    52    26    49    1
@<TRIPOS>SUBSTRUCTURE
     1 ZINC001162683355        1 TEMP              0 ****  ****    0 ROOT


##########                                Name:    ZINC001707162141
##########                DOCK_Rotatable_Bonds:                   9
##########                         Heavy_Atoms:                  25
##########                    Molecular_Weight:               344.5
##########                DOCK_Rotatable_Bonds:                   9
##########                       Formal_Charge:          -0.0299999
##########                     HBond_Acceptors:                   5
##########                        HBond_Donors:                   1
##########                         Heavy_Atoms:                  25
##########                          Grid_Score:          -30.009466
##########                     Grid_vdw_energy:          -29.947296
##########                      Grid_es_energy:           -0.062171
##########           Internal_energy_repulsive:           78.458000

@<TRIPOS>MOLECULE
ZINC001707162141
 57 59 1 0 0
SMALL
USER_CHARGES


@<TRIPOS>ATOM
      1 C1        -12.3298    1.1450   52.2527 C.3     1  ZINC001707162141   -0.1800
      2 C2        -11.3741    0.7707   53.3874 C.3     1  ZINC001707162141    0.1700
      3 H3        -11.4253    1.5277   54.1701 H       1  ZINC001707162141    0.1000
      4 N4        -11.7593   -0.5339   53.9419 N.3     1  ZINC001707162141   -0.6400
      5 C5        -11.2198   -0.7100   55.2969 C.3     1  ZINC001707162141    0.0700
      6 C6        -11.9213   -1.8878   55.9761 C.3     1  ZINC001707162141    0.1500
      7 H7        -11.6927   -2.8084   55.4391 H       1  ZINC001707162141    0.0700
      8 C8        -13.4351   -1.6528   55.9768 C.3     1  ZINC001707162141   -0.1200
      9 C9        -14.1193   -2.7627   56.7779 C.3     1  ZINC001707162141   -0.0900
     10 H10       -13.8805   -3.7298   56.3354 H       1  ZINC001707162141    0.0700
     11 C11       -15.6344   -2.5505   56.7519 C.3     1  ZINC001707162141   -0.1500
     12 C12       -13.6246   -2.7285   58.2257 C.3     1  ZINC001707162141   -0.1300
     13 C13       -12.1130   -2.9757   58.2505 C.3     1  ZINC001707162141    0.1100
     14 N14       -11.4597   -2.0009   57.3663 N.am    1  ZINC001707162141   -0.6100
     15 C15       -10.4564   -1.2249   57.8221 C.2     1  ZINC001707162141    0.5100
     16 O16        -9.9253   -0.4239   57.0823 O.2     1  ZINC001707162141   -0.4800
     17 C17        -9.9946   -1.3523   59.2509 C.3     1  ZINC001707162141   -0.1400
     18 C18        -8.8805   -0.3386   59.5191 C.3     1  ZINC001707162141   -0.0900
     19 C19        -8.4114   -0.4683   60.9697 C.3     1  ZINC001707162141   -0.0900
     20 C20        -9.3310    0.3500   61.8782 C.3     1  ZINC001707162141   -0.1500
     21 C21        -8.7617    1.6318   62.4898 C.3     1  ZINC001707162141   -0.1800
     22 C22        -8.9892    0.4002   63.3687 C.3     1  ZINC001707162141   -0.1800
     23 C23        -9.9667    0.6941   52.8540 C.ar    1  ZINC001707162141    0.3500
     24 N24        -9.1467    1.7050   53.0602 N.ar    1  ZINC001707162141   -0.5000
     25 C25        -7.9022    1.6709   52.6116 C.ar    1  ZINC001707162141    0.1500
     26 C26        -7.4696    0.5581   51.9077 C.ar    1  ZINC001707162141   -0.2400
     27 C27        -8.3626   -0.4826   51.7061 C.ar    1  ZINC001707162141    0.1500
     28 N28        -9.5903   -0.3798   52.1891 N.ar    1  ZINC001707162141   -0.5200
     29 H29       -13.3477    1.2004   52.6384 H       1  ZINC001707162141    0.0600
     30 H30       -12.0439    2.1129   51.8412 H       1  ZINC001707162141    0.0600
     31 H31       -12.2785    0.3880   51.4701 H       1  ZINC001707162141    0.0600
     32 H32       -12.7617   -0.6483   53.9342 H       1  ZINC001707162141    0.3300
     33 H33       -10.1497   -0.9089   55.2388 H       1  ZINC001707162141    0.1000
     34 H34       -11.3897    0.1974   55.8764 H       1  ZINC001707162141    0.0200
     35 H35       -13.6532   -0.6873   56.4333 H       1  ZINC001707162141    0.0700
     36 H36       -13.8053   -1.6628   54.9517 H       1  ZINC001707162141    0.0700
     37 H37       -15.8735   -1.5837   57.1949 H       1  ZINC001707162141    0.0500
     38 H38       -15.9870   -2.5749   55.7207 H       1  ZINC001707162141    0.0600
     39 H39       -16.1219   -3.3417   57.3214 H       1  ZINC001707162141    0.0600
     40 H40       -14.1296   -3.5042   58.8012 H       1  ZINC001707162141    0.0700
     41 H41       -13.8409   -1.7529   58.6611 H       1  ZINC001707162141    0.0700
     42 H42       -11.9022   -3.9859   57.8998 H       1  ZINC001707162141    0.0600
     43 H43       -11.7395   -2.8544   59.2673 H       1  ZINC001707162141    0.0800
     44 H44       -10.8314   -1.1585   59.9219 H       1  ZINC001707162141    0.0800
     45 H45        -9.6174   -2.3606   59.4222 H       1  ZINC001707162141    0.0800
     46 H46        -8.0437   -0.5321   58.8479 H       1  ZINC001707162141    0.0700
     47 H47        -9.2578    0.6697   59.3481 H       1  ZINC001707162141    0.0700
     48 H48        -8.4429   -1.5158   61.2694 H       1  ZINC001707162141    0.0600
     49 H49        -7.3905   -0.0962   61.0560 H       1  ZINC001707162141    0.0600
     50 H50       -10.3859    0.3485   61.6037 H       1  ZINC001707162141    0.1000
     51 H51        -7.7320    1.8919   62.2448 H       1  ZINC001707162141    0.0900
     52 H52        -9.4420    2.4738   62.6175 H       1  ZINC001707162141    0.0900
     53 H53        -9.8191    0.4320   64.0746 H       1  ZINC001707162141    0.0900
     54 H54        -8.1091   -0.1497   63.7020 H       1  ZINC001707162141    0.0900
     55 H55        -7.2340    2.5009   52.7875 H       1  ZINC001707162141    0.1600
     56 H56        -6.4609    0.5029   51.5258 H       1  ZINC001707162141    0.1400
     57 H57        -8.0606   -1.3652   51.1618 H       1  ZINC001707162141    0.1600
@<TRIPOS>BOND
     1     1     2    1
     2     1    29    1
     3     1    30    1
     4     1    31    1
     5     2     3    1
     6     2     4    1
     7     2    23    1
     8     4     5    1
     9     4    32    1
    10     5     6    1
    11     5    33    1
    12     5    34    1
    13     6     7    1
    14     6    14    1
    15     6     8    1
    16     8     9    1
    17     8    35    1
    18     8    36    1
    19     9    10    1
    20     9    11    1
    21     9    12    1
    22    11    37    1
    23    11    38    1
    24    11    39    1
    25    12    13    1
    26    12    40    1
    27    12    41    1
    28    13    14    1
    29    13    42    1
    30    13    43    1
    31    14    15   am
    32    15    16    2
    33    15    17    1
    34    17    18    1
    35    17    44    1
    36    17    45    1
    37    18    19    1
    38    18    46    1
    39    18    47    1
    40    19    20    1
    41    19    48    1
    42    19    49    1
    43    20    22    1
    44    20    21    1
    45    20    50    1
    46    21    22    1
    47    21    51    1
    48    21    52    1
    49    22    53    1
    50    22    54    1
    51    23    28   ar
    52    23    24   ar
    53    24    25   ar
    54    25    26   ar
    55    25    55    1
    56    26    27   ar
    57    26    56    1
    58    27    28   ar
    59    27    57    1
@<TRIPOS>SUBSTRUCTURE
     1 ZINC001707162141        1 TEMP              0 ****  ****    0 ROOT


##########                                Name:    ZINC000564088286
##########                DOCK_Rotatable_Bonds:                   6
##########                         Heavy_Atoms:                  25
##########                    Molecular_Weight:             398.934
##########                DOCK_Rotatable_Bonds:                   6
##########                       Formal_Charge:               -0.05
##########                     HBond_Acceptors:                   8
##########                        HBond_Donors:                   1
##########                         Heavy_Atoms:                  25
##########                          Grid_Score:          -29.999086
##########                     Grid_vdw_energy:          -28.959242
##########                      Grid_es_energy:           -1.039844
##########           Internal_energy_repulsive:           12.941939

@<TRIPOS>MOLECULE
ZINC000564088286
 44 46 1 0 0
SMALL
USER_CHARGES


@<TRIPOS>ATOM
      1 C1        -11.0655    5.7800   50.2801 C.3     1  ZINC000564088286   -0.1600
      2 C2         -9.8755    4.9818   50.8165 C.3     1  ZINC000564088286    0.1100
      3 N3        -10.2774    3.5891   51.0286 N.am    1  ZINC000564088286   -1.1200
      4 S4         -9.5554    2.6910   52.2180 S.o2    1  ZINC000564088286    2.7000
      5 O5         -9.6850    3.4384   53.4196 O.2     1  ZINC000564088286   -0.9600
      6 O6        -10.0435    1.3646   52.0714 O.2     1  ZINC000564088286   -0.9600
      7 C7         -7.8328    2.6306   51.8529 C.ar    1  ZINC000564088286   -0.6800
      8 C8         -7.0873    3.7947   51.8421 C.ar    1  ZINC000564088286   -0.0200
      9 C9         -5.7358    3.7473   51.5557 C.ar    1  ZINC000564088286   -0.1300
     10 C10        -5.1296    2.5358   51.2805 C.ar    1  ZINC000564088286   -0.0100
     11 C11        -3.6564    2.4842   50.9677 C.3     1  ZINC000564088286   -0.1100
     12 C12        -3.4527    2.6356   49.4822 C.2     1  ZINC000564088286    0.5200
     13 O13        -4.3759    2.9812   48.7756 O.2     1  ZINC000564088286   -0.5200
     14 N14        -2.2447    2.3871   48.9388 N.am    1  ZINC000564088286   -0.6200
     15 C15        -1.1118    1.9671   49.7773 C.3     1  ZINC000564088286    0.1200
     16 C16        -0.7142    0.5416   49.3820 C.3     1  ZINC000564088286   -0.0700
     17 C17        -0.6620    0.4430   47.8721 C.2     1  ZINC000564088286   -0.1600
     18 C18        -1.2421    1.3084   47.0197 C.2     1  ZINC000564088286   -0.1200
     19 C19        -1.0535    0.9879   45.6785 C.2     1  ZINC000564088286   -0.1100
     20 C20        -0.3326   -0.1055   45.4443 C.2     1  ZINC000564088286   -0.1500
     21 Cl21        0.0568   -0.7300   43.8721 Cl      1  ZINC000564088286   -0.0100
     22 S22         0.1655   -0.8204   46.9702 S.3     1  ZINC000564088286    0.1600
     23 C23        -2.0262    2.5227   47.4917 C.3     1  ZINC000564088286    0.1700
     24 C24        -5.8749    1.3716   51.2926 C.ar    1  ZINC000564088286   -0.1300
     25 C25        -7.2256    1.4185   51.5828 C.ar    1  ZINC000564088286   -0.0200
     26 H26       -11.3956    5.3492   49.3349 H       1  ZINC000564088286    0.0600
     27 H27       -11.8821    5.7433   51.0011 H       1  ZINC000564088286    0.0600
     28 H28       -10.7665    6.8163   50.1223 H       1  ZINC000564088286    0.0700
     29 H29        -9.0588    5.0186   50.0955 H       1  ZINC000564088286    0.0800
     30 H30        -9.5453    5.4128   51.7617 H       1  ZINC000564088286    0.0700
     31 H31       -10.9664    3.1930   50.4725 H       1  ZINC000564088286    0.4200
     32 H32        -7.5609    4.7411   52.0572 H       1  ZINC000564088286    0.1400
     33 H33        -5.1536    4.6569   51.5466 H       1  ZINC000564088286    0.1300
     34 H34        -3.1457    3.2940   51.4888 H       1  ZINC000564088286    0.1100
     35 H35        -3.2488    1.5276   51.2946 H       1  ZINC000564088286    0.1100
     36 H36        -0.2691    2.6397   49.6177 H       1  ZINC000564088286    0.0800
     37 H37        -1.4060    1.9874   50.8267 H       1  ZINC000564088286    0.1100
     38 H38         0.2667    0.3086   49.7966 H       1  ZINC000564088286    0.0900
     39 H39        -1.4510   -0.1628   49.7680 H       1  ZINC000564088286    0.0900
     40 H40        -1.4656    1.5872   44.8801 H       1  ZINC000564088286    0.1500
     41 H41        -2.9844    2.5675   46.9739 H       1  ZINC000564088286    0.1000
     42 H42        -1.4560    3.4303   47.2937 H       1  ZINC000564088286    0.0900
     43 H43        -5.4012    0.4251   51.0779 H       1  ZINC000564088286    0.1300
     44 H44        -7.8078    0.5089   51.5923 H       1  ZINC000564088286    0.1400
@<TRIPOS>BOND
     1     1     2    1
     2     1    26    1
     3     1    27    1
     4     1    28    1
     5     2     3    1
     6     2    29    1
     7     2    30    1
     8     3     4   am
     9     3    31    1
    10     4     5    2
    11     4     6    2
    12     4     7    1
    13     7    25   ar
    14     7     8   ar
    15     8     9   ar
    16     8    32    1
    17     9    10   ar
    18     9    33    1
    19    10    11    1
    20    10    24   ar
    21    11    12    1
    22    11    34    1
    23    11    35    1
    24    12    13    2
    25    12    14   am
    26    14    23    1
    27    14    15    1
    28    15    16    1
    29    15    36    1
    30    15    37    1
    31    16    17    1
    32    16    38    1
    33    16    39    1
    34    17    22    1
    35    17    18    2
    36    18    19    1
    37    18    23    1
    38    19    20    2
    39    19    40    1
    40    20    21    1
    41    20    22    1
    42    23    41    1
    43    23    42    1
    44    24    25   ar
    45    24    43    1
    46    25    44    1
@<TRIPOS>SUBSTRUCTURE
     1 ZINC000564088286        1 TEMP              0 ****  ****    0 ROOT


##########                                Name:    ZINC000573150059
##########                DOCK_Rotatable_Bonds:                   7
##########                         Heavy_Atoms:                  23
##########                    Molecular_Weight:             378.269
##########                DOCK_Rotatable_Bonds:                   7
##########                       Formal_Charge:        -2.98023e-07
##########                     HBond_Acceptors:                   5
##########                        HBond_Donors:                   2
##########                         Heavy_Atoms:                  23
##########                          Grid_Score:          -29.953728
##########                     Grid_vdw_energy:          -29.742285
##########                      Grid_es_energy:           -0.211442
##########           Internal_energy_repulsive:           13.691101

@<TRIPOS>MOLECULE
ZINC000573150059
 43 44 1 0 0
SMALL
USER_CHARGES


@<TRIPOS>ATOM
      1 C1         -1.0844    0.5602   45.6741 C.3     1  ZINC000573150059    0.0300
      2 O2          0.2288    0.4428   46.2253 O.3     1  ZINC000573150059   -0.3600
      3 C3          0.2949   -0.3635   47.4032 C.3     1  ZINC000573150059    0.0700
      4 H4         -0.1198   -1.3492   47.1924 H       1  ZINC000573150059    0.0900
      5 C5          1.7535   -0.5071   47.8419 C.3     1  ZINC000573150059   -0.1700
      6 C6         -0.4991    0.2903   48.5047 C.2     1  ZINC000573150059    0.5100
      7 O7         -1.1521   -0.3900   49.2675 O.2     1  ZINC000573150059   -0.4900
      8 N8         -0.4834    1.6308   48.6422 N.am    1  ZINC000573150059   -0.6700
      9 C9         -1.2206    2.2378   49.6650 C.ar    1  ZINC000573150059    0.1900
     10 C10        -0.5835    3.0550   50.5903 C.ar    1  ZINC000573150059   -0.2000
     11 C11        -1.3105    3.6549   51.6008 C.ar    1  ZINC000573150059   -0.0500
     12 C12        -2.6725    3.4449   51.6941 C.ar    1  ZINC000573150059   -0.2200
     13 C13        -3.3161    2.6288   50.7713 C.ar    1  ZINC000573150059    0.2400
     14 N14        -4.6934    2.4172   50.8659 N.pl3   1  ZINC000573150059   -0.7300
     15 C15        -5.4248    2.8729   52.0506 C.3     1  ZINC000573150059    0.2000
     16 H16        -4.7665    2.8408   52.9187 H       1  ZINC000573150059    0.1000
     17 C17        -5.9089    4.3076   51.8305 C.3     1  ZINC000573150059   -0.1700
     18 C18        -6.6107    1.9732   52.2857 C.ar    1  ZINC000573150059    0.1400
     19 C19        -7.5116    2.2791   53.2880 C.ar    1  ZINC000573150059   -0.1600
     20 C20        -8.5997    1.4454   53.4962 C.ar    1  ZINC000573150059   -0.0400
     21 C21        -8.7412    0.3296   52.6844 C.ar    1  ZINC000573150059   -0.1500
     22 Br22      -10.2042   -0.8456   52.9181 Br      1  ZINC000573150059   -0.0300
     23 C23        -7.7987    0.0880   51.7013 C.ar    1  ZINC000573150059    0.1400
     24 N24        -6.7792    0.9062   51.5292 N.ar    1  ZINC000573150059   -0.4700
     25 C25        -2.5895    2.0288   49.7527 C.ar    1  ZINC000573150059   -0.1900
     26 H26        -1.4565   -0.4291   45.4081 H       1  ZINC000573150059    0.0500
     27 H27        -1.7485    1.0121   46.4110 H       1  ZINC000573150059    0.0400
     28 H28        -1.0498    1.1872   44.7832 H       1  ZINC000573150059    0.0900
     29 H29         2.1682    0.4787   48.0527 H       1  ZINC000573150059    0.0700
     30 H30         1.8039   -1.1221   48.7404 H       1  ZINC000573150059    0.0700
     31 H31         2.3277   -0.9799   47.0453 H       1  ZINC000573150059    0.0700
     32 H32         0.0389    2.1749   48.0323 H       1  ZINC000573150059    0.4100
     33 H33         0.4814    3.2212   50.5201 H       1  ZINC000573150059    0.1200
     34 H34        -0.8126    4.2892   52.3192 H       1  ZINC000573150059    0.1300
     35 H35        -3.2379    3.9149   52.4851 H       1  ZINC000573150059    0.1200
     36 H36        -5.1657    1.9684   50.1472 H       1  ZINC000573150059    0.4100
     37 H37        -6.5673    4.3397   50.9624 H       1  ZINC000573150059    0.0600
     38 H38        -6.4531    4.6466   52.7119 H       1  ZINC000573150059    0.0700
     39 H39        -5.0512    4.9583   51.6603 H       1  ZINC000573150059    0.0700
     40 H40        -7.3698    3.1565   53.9015 H       1  ZINC000573150059    0.1500
     41 H41        -9.3197    1.6594   54.2723 H       1  ZINC000573150059    0.1500
     42 H42        -7.9011   -0.7786   51.0649 H       1  ZINC000573150059    0.1700
     43 H43        -3.0871    1.3945   49.0340 H       1  ZINC000573150059    0.1400
@<TRIPOS>BOND
     1     1     2    1
     2     1    26    1
     3     1    27    1
     4     1    28    1
     5     2     3    1
     6     3     4    1
     7     3     5    1
     8     3     6    1
     9     5    29    1
    10     5    30    1
    11     5    31    1
    12     6     7    2
    13     6     8   am
    14     8     9    1
    15     8    32    1
    16     9    25   ar
    17     9    10   ar
    18    10    11   ar
    19    10    33    1
    20    11    12   ar
    21    11    34    1
    22    12    13   ar
    23    12    35    1
    24    13    14    1
    25    13    25   ar
    26    14    15    1
    27    14    36    1
    28    15    16    1
    29    15    17    1
    30    15    18    1
    31    17    37    1
    32    17    38    1
    33    17    39    1
    34    18    24   ar
    35    18    19   ar
    36    19    20   ar
    37    19    40    1
    38    20    21   ar
    39    20    41    1
    40    21    22    1
    41    21    23   ar
    42    23    24   ar
    43    23    42    1
    44    25    43    1
@<TRIPOS>SUBSTRUCTURE
     1 ZINC000573150059        1 TEMP              0 ****  ****    0 ROOT


##########                                Name:    ZINC000410354665
##########                DOCK_Rotatable_Bonds:                   7
##########                         Heavy_Atoms:                  29
##########                    Molecular_Weight:             417.889
##########                DOCK_Rotatable_Bonds:                   7
##########                       Formal_Charge:        -3.72529e-08
##########                     HBond_Acceptors:                   7
##########                        HBond_Donors:                   1
##########                         Heavy_Atoms:                  29
##########                          Grid_Score:          -29.935608
##########                     Grid_vdw_energy:          -29.591751
##########                      Grid_es_energy:           -0.343857
##########           Internal_energy_repulsive:           19.472555

@<TRIPOS>MOLECULE
ZINC000410354665
 53 56 1 0 0
SMALL
USER_CHARGES


@<TRIPOS>ATOM
      1 C1         -6.0511    1.0071   50.9634 C.3     1  ZINC000410354665    0.0200
      2 O2         -6.5087    1.7090   52.1208 O.3     1  ZINC000410354665   -0.3000
      3 C3         -5.6919    2.6750   52.6202 C.ar    1  ZINC000410354665    0.0900
      4 C4         -4.5479    3.0341   51.9349 C.ar    1  ZINC000410354665   -0.1100
      5 C5         -3.7110    4.0276   52.4508 C.ar    1  ZINC000410354665   -0.1400
      6 C6         -2.4873    4.4156   51.7222 C.2     1  ZINC000410354665    0.5700
      7 O7         -1.9444    5.4757   51.9669 O.2     1  ZINC000410354665   -0.5300
      8 N8         -1.9719    3.5948   50.7857 N.am    1  ZINC000410354665   -0.7200
      9 C9         -0.7564    3.9791   50.0638 C.3     1  ZINC000410354665    0.1700
     10 C10        -0.4622    2.9574   48.9958 C.ar    1  ZINC000410354665   -0.1000
     11 C11        -0.2453    1.6377   49.3448 C.ar    1  ZINC000410354665   -0.0900
     12 C12         0.0273    0.6975   48.3675 C.ar    1  ZINC000410354665   -0.0300
     13 Cl13        0.2997   -0.9591   48.8094 Cl      1  ZINC000410354665   -0.0400
     14 C14         0.0826    1.0774   47.0340 C.ar    1  ZINC000410354665    0.0700
     15 O15         0.3595    0.1427   46.0838 O.3     1  ZINC000410354665   -0.2900
     16 C16         0.0403    0.4863   44.7310 C.3     1  ZINC000410354665    0.0200
     17 C17         0.5507    1.9085   44.4629 C.3     1  ZINC000410354665    0.0200
     18 O18        -0.0948    2.7970   45.3815 O.3     1  ZINC000410354665   -0.3000
     19 C19        -0.1393    2.4037   46.6838 C.ar    1  ZINC000410354665    0.0600
     20 C20        -0.4154    3.3405   47.6686 C.ar    1  ZINC000410354665   -0.0900
     21 C21        -4.0353    4.6528   53.6569 C.ar    1  ZINC000410354665   -0.0800
     22 C22        -5.1783    4.2894   54.3360 C.ar    1  ZINC000410354665   -0.1900
     23 C23        -6.0126    3.3070   53.8211 C.ar    1  ZINC000410354665    0.1400
     24 O24        -7.1375    2.9525   54.4940 O.3     1  ZINC000410354665   -0.2900
     25 C25        -7.3396    3.5460   55.7781 C.3     1  ZINC000410354665    0.0700
     26 C26        -8.7660    3.2398   56.2983 C.3     1  ZINC000410354665   -0.1500
     27 C27        -8.6101    3.3904   57.8320 C.3     1  ZINC000410354665   -0.1200
     28 C28        -7.2162    2.8005   58.1303 C.3     1  ZINC000410354665   -0.1200
     29 C29        -6.4084    2.8995   56.8243 C.3     1  ZINC000410354665   -0.1200
     30 H30        -5.8990    1.7129   50.1468 H       1  ZINC000410354665    0.0600
     31 H31        -5.1101    0.5062   51.1906 H       1  ZINC000410354665    0.0600
     32 H32        -6.7951    0.2666   50.6697 H       1  ZINC000410354665    0.1000
     33 H33        -4.3004    2.5481   51.0028 H       1  ZINC000410354665    0.1500
     34 H34        -2.4057    2.7497   50.5896 H       1  ZINC000410354665    0.4000
     35 H35        -0.9014    4.9558   49.6020 H       1  ZINC000410354665    0.0800
     36 H36         0.0802    4.0274   50.7608 H       1  ZINC000410354665    0.0900
     37 H37        -0.2883    1.3402   50.3821 H       1  ZINC000410354665    0.1500
     38 H38         0.5255   -0.2129   44.0499 H       1  ZINC000410354665    0.1300
     39 H39        -1.0397    0.4502   44.5878 H       1  ZINC000410354665    0.0800
     40 H40         1.6298    1.9460   44.6119 H       1  ZINC000410354665    0.0800
     41 H41         0.3099    2.1987   43.4402 H       1  ZINC000410354665    0.1300
     42 H42        -0.5902    4.3715   47.3984 H       1  ZINC000410354665    0.1400
     43 H43        -3.3902    5.4208   54.0574 H       1  ZINC000410354665    0.1300
     44 H44        -5.4277    4.7735   55.2687 H       1  ZINC000410354665    0.1400
     45 H45        -7.1714    4.6219   55.7307 H       1  ZINC000410354665    0.0800
     46 H46        -9.4825    3.9637   55.9100 H       1  ZINC000410354665    0.0700
     47 H47        -9.0623    2.2237   56.0380 H       1  ZINC000410354665    0.0800
     48 H48        -8.6488    4.4414   58.1181 H       1  ZINC000410354665    0.0700
     49 H49        -9.3831    2.8240   58.3514 H       1  ZINC000410354665    0.0700
     50 H50        -6.7274    3.3763   58.9162 H       1  ZINC000410354665    0.0700
     51 H51        -7.3092    1.7576   58.4336 H       1  ZINC000410354665    0.0700
     52 H52        -6.1093    1.9047   56.4940 H       1  ZINC000410354665    0.0800
     53 H53        -5.5276    3.5232   56.9765 H       1  ZINC000410354665    0.0700
@<TRIPOS>BOND
     1     1     2    1
     2     1    30    1
     3     1    31    1
     4     1    32    1
     5     2     3    1
     6     3    23   ar
     7     3     4   ar
     8     4     5   ar
     9     4    33    1
    10     5     6    1
    11     5    21   ar
    12     6     7    2
    13     6     8   am
    14     8     9    1
    15     8    34    1
    16     9    10    1
    17     9    35    1
    18     9    36    1
    19    10    20   ar
    20    10    11   ar
    21    11    12   ar
    22    11    37    1
    23    12    13    1
    24    12    14   ar
    25    14    19   ar
    26    14    15    1
    27    15    16    1
    28    16    17    1
    29    16    38    1
    30    16    39    1
    31    17    18    1
    32    17    40    1
    33    17    41    1
    34    18    19    1
    35    19    20   ar
    36    20    42    1
    37    21    22   ar
    38    21    43    1
    39    22    23   ar
    40    22    44    1
    41    23    24    1
    42    24    25    1
    43    25    29    1
    44    25    26    1
    45    25    45    1
    46    26    27    1
    47    26    46    1
    48    26    47    1
    49    27    28    1
    50    27    48    1
    51    27    49    1
    52    28    29    1
    53    28    50    1
    54    28    51    1
    55    29    52    1
    56    29    53    1
@<TRIPOS>SUBSTRUCTURE
     1 ZINC000410354665        1 TEMP              0 ****  ****    0 ROOT


##########                                Name:    ZINC000076573199
##########                DOCK_Rotatable_Bonds:                  10
##########                         Heavy_Atoms:                  24
##########                    Molecular_Weight:             333.431
##########                DOCK_Rotatable_Bonds:                  10
##########                       Formal_Charge:          -0.0200009
##########                     HBond_Acceptors:                   6
##########                        HBond_Donors:                   3
##########                         Heavy_Atoms:                  24
##########                          Grid_Score:          -29.923357
##########                     Grid_vdw_energy:          -30.178020
##########                      Grid_es_energy:            0.254663
##########           Internal_energy_repulsive:           22.206741

@<TRIPOS>MOLECULE
ZINC000076573199
 51 51 1 0 0
SMALL
USER_CHARGES


@<TRIPOS>ATOM
      1 C1         -7.2295    6.1934   51.4306 C.3     1  ZINC000076573199   -0.1500
      2 C2         -7.6316    4.7246   51.2824 C.3     1  ZINC000076573199   -0.1200
      3 C3         -6.4938    3.9493   50.6151 C.3     1  ZINC000076573199   -0.1000
      4 H4         -5.5962    4.0208   51.2293 H       1  ZINC000076573199    0.0700
      5 C5         -6.2145    4.5424   49.2328 C.3     1  ZINC000076573199   -0.1500
      6 C6         -6.8953    2.4802   50.4681 C.3     1  ZINC000076573199   -0.1200
      7 C7         -5.8441    1.5945   51.1398 C.3     1  ZINC000076573199    0.1400
      8 H8         -5.5913    2.0074   52.1163 H       1  ZINC000076573199    0.1000
      9 C9         -6.4035    0.1810   51.3131 C.3     1  ZINC000076573199   -0.1700
     10 N10        -4.6416    1.5447   50.3044 N.am    1  ZINC000076573199   -0.6900
     11 C11        -3.4645    1.9858   50.7908 C.2     1  ZINC000076573199    0.5100
     12 O12        -3.4011    2.4255   51.9202 O.2     1  ZINC000076573199   -0.5100
     13 C13        -2.2382    1.9334   49.9398 C.2     1  ZINC000076573199    0.5100
     14 O14        -1.5000    2.8950   49.8792 O.2     1  ZINC000076573199   -0.5000
     15 N15        -1.9513    0.8184   49.2391 N.am    1  ZINC000076573199   -0.6400
     16 C16        -0.8041    0.7694   48.4431 C.ar    1  ZINC000076573199    0.1500
     17 C17         0.0922   -0.2839   48.5786 C.ar    1  ZINC000076573199   -0.1300
     18 C18         1.2265   -0.3330   47.7912 C.ar    1  ZINC000076573199   -0.0800
     19 C19         1.4735    0.6639   46.8672 C.ar    1  ZINC000076573199   -0.1200
     20 C20         2.7118    0.6059   46.0103 C.3     1  ZINC000076573199   -0.1100
     21 C21         0.5812    1.7199   46.7267 C.ar    1  ZINC000076573199    0.1600
     22 N22         0.8324    2.7290   45.7906 N.am    1  ZINC000076573199   -0.6700
     23 C23         0.0251    2.8719   44.7208 C.2     1  ZINC000076573199    0.5100
     24 C24         0.2956    3.9587   43.7125 C.3     1  ZINC000076573199   -0.1700
     25 O25        -0.9189    2.1257   44.5695 O.2     1  ZINC000076573199   -0.5200
     26 C26        -0.5613    1.7698   47.5117 C.ar    1  ZINC000076573199   -0.1400
     27 H27        -7.0299    6.6165   50.4461 H       1  ZINC000076573199    0.0600
     28 H28        -8.0400    6.7457   51.9060 H       1  ZINC000076573199    0.0500
     29 H29        -6.3322    6.2643   52.0452 H       1  ZINC000076573199    0.0500
     30 H30        -7.8312    4.3015   52.2668 H       1  ZINC000076573199    0.0600
     31 H31        -8.5289    4.6538   50.6677 H       1  ZINC000076573199    0.0600
     32 H32        -7.0842    4.3963   48.5922 H       1  ZINC000076573199    0.0600
     33 H33        -6.0096    5.6087   49.3295 H       1  ZINC000076573199    0.0600
     34 H34        -5.3507    4.0451   48.7917 H       1  ZINC000076573199    0.0500
     35 H35        -7.8632    2.3189   50.9426 H       1  ZINC000076573199    0.0800
     36 H36        -6.9624    2.2261   49.4102 H       1  ZINC000076573199    0.0700
     37 H37        -5.6546   -0.4500   51.7917 H       1  ZINC000076573199    0.0600
     38 H38        -7.2982    0.2180   51.9346 H       1  ZINC000076573199    0.0700
     39 H39        -6.6563   -0.2320   50.3365 H       1  ZINC000076573199    0.0600
     40 H40        -4.6925    1.1943   49.4014 H       1  ZINC000076573199    0.4100
     41 H41        -2.5413    0.0499   49.2877 H       1  ZINC000076573199    0.4200
     42 H42        -0.0979   -1.0645   49.3002 H       1  ZINC000076573199    0.1400
     43 H43         1.9218   -1.1523   47.8986 H       1  ZINC000076573199    0.1300
     44 H44         2.4931    0.0606   45.0923 H       1  ZINC000076573199    0.0700
     45 H45         3.0310    1.6185   45.7642 H       1  ZINC000076573199    0.0600
     46 H46         3.5069    0.0965   46.5549 H       1  ZINC000076573199    0.0700
     47 H47         1.5875    3.3258   45.9115 H       1  ZINC000076573199    0.4100
     48 H48         1.2849    3.8136   43.2784 H       1  ZINC000076573199    0.0900
     49 H49        -0.4564    3.9186   42.9244 H       1  ZINC000076573199    0.1000
     50 H50         0.2541    4.9300   44.2053 H       1  ZINC000076573199    0.0900
     51 H51        -1.2563    2.5895   47.4043 H       1  ZINC000076573199    0.1400
@<TRIPOS>BOND
     1     1     2    1
     2     1    27    1
     3     1    28    1
     4     1    29    1
     5     2     3    1
     6     2    30    1
     7     2    31    1
     8     3     4    1
     9     3     5    1
    10     3     6    1
    11     5    32    1
    12     5    33    1
    13     5    34    1
    14     6     7    1
    15     6    35    1
    16     6    36    1
    17     7     8    1
    18     7     9    1
    19     7    10    1
    20     9    37    1
    21     9    38    1
    22     9    39    1
    23    10    11   am
    24    10    40    1
    25    11    12    2
    26    11    13    1
    27    13    14    2
    28    13    15   am
    29    15    16    1
    30    15    41    1
    31    16    26   ar
    32    16    17   ar
    33    17    18   ar
    34    17    42    1
    35    18    19   ar
    36    18    43    1
    37    19    20    1
    38    19    21   ar
    39    20    44    1
    40    20    45    1
    41    20    46    1
    42    21    22    1
    43    21    26   ar
    44    22    23   am
    45    22    47    1
    46    23    24    1
    47    23    25    2
    48    24    48    1
    49    24    49    1
    50    24    50    1
    51    26    51    1
@<TRIPOS>SUBSTRUCTURE
     1 ZINC000076573199        1 TEMP              0 ****  ****    0 ROOT


##########                                Name:     oleObject15.pdb
##########                DOCK_Rotatable_Bonds:                   9
##########                         Heavy_Atoms:                  29
##########                    Molecular_Weight:             395.545
##########                DOCK_Rotatable_Bonds:                   9
##########                       Formal_Charge:         0.000700183
##########                     HBond_Acceptors:                   5
##########                        HBond_Donors:                   1
##########                         Heavy_Atoms:                  29
##########                          Grid_Score:          -29.905993
##########                     Grid_vdw_energy:          -29.395933
##########                      Grid_es_energy:           -0.510059
##########           Internal_energy_repulsive:           10.511816

@<TRIPOS>MOLECULE
oleObject15.pdb
 62 64 1 0 0
SMALL
NO_CHARGES


@<TRIPOS>ATOM
      1 O          -4.6707    2.6597   49.5306 O.3     1  UNL        -0.3745
      2 C          -3.6092    1.6830   49.6234 C.3     1  UNL         0.0600
      3 C          -2.6824    1.8444   48.3960 C.3     1  UNL         0.0217
      4 N          -1.7258    0.7308   48.1957 N.4     1  UNL        -0.3010
      5 C          -0.8758    0.8552   46.9893 C.3     1  UNL        -0.0010
      6 C          -0.0002   -0.3981   46.7720 C.3     1  UNL        -0.0289
      7 C           0.8469   -0.7624   48.0150 C.3     1  UNL         0.0382
      8 C          -0.0509   -0.7997   49.2774 C.3     1  UNL        -0.0289
      9 C          -0.9552    0.4464   49.4247 C.3     1  UNL        -0.0010
     10 C           2.0586    0.1881   48.1810 C.2     1  UNL         0.2156
     11 O           3.1394   -0.0514   47.6740 O.2     1  UNL        -0.2774
     12 N           1.9133    1.3752   48.8875 N.am    1  UNL        -0.3025
     13 C           2.9423    2.3990   49.1494 C.3     1  UNL         0.0900
     14 C           3.0414    3.4414   48.0372 C.ar    1  UNL        -0.0217
     15 C           4.1790    3.5174   47.2084 C.ar    1  UNL        -0.0568
     16 C           4.2591    4.4901   46.1985 C.ar    1  UNL        -0.0619
     17 C           3.2014    5.3926   46.0064 C.ar    1  UNL        -0.0622
     18 C           2.0625    5.3196   46.8236 C.ar    1  UNL        -0.0619
     19 C           1.9826    4.3467   47.8333 C.ar    1  UNL        -0.0568
     20 C           2.7365    3.0720   50.5033 C.ar    1  UNL         0.0652
     21 C           1.9735    2.4672   51.5235 C.ar    1  UNL        -0.0383
     22 C           1.8131    3.1406   52.7451 C.ar    1  UNL        -0.0588
     23 C           2.4201    4.3959   52.9040 C.ar    1  UNL        -0.0438
     24 C           3.1621    4.9269   51.8351 C.ar    1  UNL         0.0272
     25 N           3.3171    4.2817   50.6612 N.ar    1  UNL        -0.2590
     26 C          -5.7000    2.6959   50.5476 C.3     1  UNL         0.0599
     27 C          -5.0691    3.0685   51.9128 C.3     1  UNL        -0.0364
     28 C          -6.6721    3.8084   50.0939 C.3     1  UNL        -0.0364
     29 C          -6.4372    1.3346   50.6062 C.3     1  UNL        -0.0364
     30 H          -4.0234    0.6676   49.6211 H       1  UNL         0.0581
     31 H          -3.0268    1.8108   50.5423 H       1  UNL         0.0581
     32 H          -2.1233    2.7802   48.5231 H       1  UNL         0.0455
     33 H          -3.3058    1.9563   47.4999 H       1  UNL         0.0455
     34 H          -0.2314    1.7392   47.0787 H       1  UNL         0.0431
     35 H          -1.4964    0.9836   46.0948 H       1  UNL         0.0431
     36 H           0.6468   -0.2483   45.9000 H       1  UNL         0.0288
     37 H          -0.6581   -1.2434   46.5316 H       1  UNL         0.0288
     38 H           1.2105   -1.7837   47.8742 H       1  UNL         0.0402
     39 H           0.5676   -0.9203   50.1758 H       1  UNL         0.0288
     40 H          -0.6966   -1.6856   49.2211 H       1  UNL         0.0288
     41 H          -0.3381    1.3163   49.6817 H       1  UNL         0.0431
     42 H          -1.6440    0.2767   50.2623 H       1  UNL         0.0431
     43 H           0.9690    1.5988   49.1744 H       1  UNL         0.1504
     44 H           3.9033    1.8723   49.2085 H       1  UNL         0.0624
     45 H           5.0076    2.8300   47.3514 H       1  UNL         0.0626
     46 H           5.1412    4.5452   45.5671 H       1  UNL         0.0623
     47 H           3.2635    6.1453   45.2257 H       1  UNL         0.0623
     48 H           1.2420    6.0158   46.6746 H       1  UNL         0.0623
     49 H           1.0962    4.2979   48.4596 H       1  UNL         0.0626
     50 H           1.5135    1.4952   51.3733 H       1  UNL         0.0643
     51 H           1.2313    2.6995   53.5494 H       1  UNL         0.0624
     52 H           2.3183    4.9471   53.8342 H       1  UNL         0.0639
     53 H           3.6469    5.8987   51.9207 H       1  UNL         0.0840
     54 H          -4.4419    3.9645   51.8208 H       1  UNL         0.0260
     55 H          -4.4489    2.2545   52.3068 H       1  UNL         0.0260
     56 H          -5.8489    3.2764   52.6562 H       1  UNL         0.0260
     57 H          -6.1533    4.7726   50.0162 H       1  UNL         0.0260
     58 H          -7.4988    3.9245   50.8061 H       1  UNL         0.0260
     59 H          -7.1013    3.5754   49.1110 H       1  UNL         0.0260
     60 H          -5.7890    0.5427   51.0013 H       1  UNL         0.0260
     61 H          -6.7796    1.0326   49.6081 H       1  UNL         0.0260
     62 H          -7.3161    1.3978   51.2602 H       1  UNL         0.0260
@<TRIPOS>BOND
     1     1     2    1
     2     1    26    1
     3     2     3    1
     4     2    30    1
     5     2    31    1
     6     3     4    1
     7     3    32    1
     8     3    33    1
     9     4     5    1
    10     4     9    1
    11     5     6    1
    12     5    34    1
    13     5    35    1
    14     6     7    1
    15     6    36    1
    16     6    37    1
    17     7     8    1
    18     7    10    1
    19     7    38    1
    20     8     9    1
    21     8    39    1
    22     8    40    1
    23     9    41    1
    24     9    42    1
    25    10    11    2
    26    10    12   am
    27    12    13    1
    28    12    43    1
    29    13    14    1
    30    13    20    1
    31    13    44    1
    32    14    15   ar
    33    14    19   ar
    34    15    16   ar
    35    15    45    1
    36    16    17   ar
    37    16    46    1
    38    17    18   ar
    39    17    47    1
    40    18    19   ar
    41    18    48    1
    42    19    49    1
    43    20    21   ar
    44    20    25   ar
    45    21    22   ar
    46    21    50    1
    47    22    23   ar
    48    22    51    1
    49    23    24   ar
    50    23    52    1
    51    24    25   ar
    52    24    53    1
    53    26    27    1
    54    26    28    1
    55    26    29    1
    56    27    54    1
    57    27    55    1
    58    27    56    1
    59    28    57    1
    60    28    58    1
    61    28    59    1
    62    29    60    1
    63    29    61    1
    64    29    62    1
@<TRIPOS>SUBSTRUCTURE
     1 UNL         1 TEMP              0 ****  ****    0 ROOT


##########                                Name:    ZINC000991934963
##########                DOCK_Rotatable_Bonds:                   8
##########                         Heavy_Atoms:                  27
##########                    Molecular_Weight:             370.495
##########                DOCK_Rotatable_Bonds:                   8
##########                       Formal_Charge:          -0.0499997
##########                     HBond_Acceptors:                   6
##########                        HBond_Donors:                   1
##########                         Heavy_Atoms:                  27
##########                          Grid_Score:          -29.841581
##########                     Grid_vdw_energy:          -29.559311
##########                      Grid_es_energy:           -0.282271
##########           Internal_energy_repulsive:           12.447978

@<TRIPOS>MOLECULE
ZINC000991934963
 57 61 1 0 0
SMALL
USER_CHARGES


@<TRIPOS>ATOM
      1 C1         -7.6039   -0.6566   51.7494 C.3     1  ZINC000991934963    0.0400
      2 O2         -6.3054   -0.1176   52.0053 O.3     1  ZINC000991934963   -0.2900
      3 C3         -5.9340    0.9634   51.2783 C.ar    1  ZINC000991934963    0.5000
      4 N4         -6.8267    1.5575   50.5033 N.ar    1  ZINC000991934963   -0.5700
      5 C5         -6.4975    2.6154   49.7800 C.ar    1  ZINC000991934963    0.1900
      6 C6         -5.2005    3.0991   49.8419 C.ar    1  ZINC000991934963   -0.2700
      7 C7         -4.2914    2.4522   50.6644 C.ar    1  ZINC000991934963    0.2200
      8 C8         -2.8698    2.9421   50.7641 C.3     1  ZINC000991934963    0.1000
      9 N9         -2.1735    2.6856   49.4962 N.3     1  ZINC000991934963   -0.4900
     10 C10        -2.1507    1.2216   49.1833 C.3     1  ZINC000991934963    0.0400
     11 C11        -0.6604    0.8509   48.9032 C.3     1  ZINC000991934963   -0.1400
     12 C12        -0.0890    2.2048   48.4870 C.3     1  ZINC000991934963    0.1700
     13 N13        -0.4565    2.5669   47.1159 N.am    1  ZINC000991934963   -0.7000
     14 C14         0.0306    1.8582   46.0781 C.2     1  ZINC000991934963    0.5200
     15 O15         0.7744    0.9215   46.2793 O.2     1  ZINC000991934963   -0.5300
     16 C16        -0.3487    2.2297   44.6677 C.3     1  ZINC000991934963   -0.1100
     17 C17         0.8549    2.8610   43.9652 C.3     1  ZINC000991934963   -0.1300
     18 H18         1.5319    2.1623   43.4734 H       1  ZINC000991934963    0.1200
     19 C19         1.4683    4.1104   44.6004 C.3     1  ZINC000991934963   -0.1700
     20 C20         0.6533    4.2288   43.3102 C.3     1  ZINC000991934963   -0.1200
     21 H21        -0.3368    4.6792   43.3799 H       1  ZINC000991934963    0.1000
     22 C22         1.4174    4.5123   42.0152 C.3     1  ZINC000991934963   -0.1200
     23 C23         0.9331    5.6772   41.1498 C.3     1  ZINC000991934963   -0.1800
     24 C24         2.2338    5.8043   41.9452 C.3     1  ZINC000991934963   -0.1800
     25 C25         1.3587    2.5484   48.8207 C.3     1  ZINC000991934963   -0.1200
     26 C26         1.3006    4.0961   49.0115 C.3     1  ZINC000991934963   -0.1200
     27 C27        -0.1674    4.4205   49.4234 C.3     1  ZINC000991934963   -0.1000
     28 C28        -0.8090    3.0828   49.5743 C.3     1  ZINC000991934963    0.0500
     29 H29        -0.4382    2.6764   50.5154 H       1  ZINC000991934963    0.0400
     30 N30        -4.6887    1.4027   51.3648 N.ar    1  ZINC000991934963   -0.5000
     31 H31        -7.6689   -0.9684   50.7070 H       1  ZINC000991934963    0.0600
     32 H32        -7.7745   -1.5165   52.3972 H       1  ZINC000991934963    0.1100
     33 H33        -8.3588    0.1040   51.9489 H       1  ZINC000991934963    0.0600
     34 H34        -7.2306    3.0958   49.1489 H       1  ZINC000991934963    0.1700
     35 H35        -4.9043    3.9608   49.2620 H       1  ZINC000991934963    0.1500
     36 H36        -2.8679    4.0126   50.9695 H       1  ZINC000991934963    0.1000
     37 H37        -2.3600    2.4164   51.5714 H       1  ZINC000991934963    0.0600
     38 H38        -2.5239    0.6517   50.0342 H       1  ZINC000991934963    0.0600
     39 H39        -2.7584    1.0184   48.3014 H       1  ZINC000991934963    0.0800
     40 H40        -0.1728    0.4804   49.8048 H       1  ZINC000991934963    0.0800
     41 H41        -0.5826    0.1269   48.0920 H       1  ZINC000991934963    0.0900
     42 H42        -1.0504    3.3168   46.9548 H       1  ZINC000991934963    0.4000
     43 H43        -0.6569    1.3349   44.1268 H       1  ZINC000991934963    0.1000
     44 H44        -1.1724    2.9432   44.6889 H       1  ZINC000991934963    0.0900
     45 H45         1.0144    4.4827   45.5187 H       1  ZINC000991934963    0.0900
     46 H46         2.5488    4.2340   44.5262 H       1  ZINC000991934963    0.1000
     47 H47         1.8163    3.6364   41.5035 H       1  ZINC000991934963    0.1000
     48 H48         1.0132    5.5679   40.0682 H       1  ZINC000991934963    0.0900
     49 H49         0.0701    6.2417   41.5028 H       1  ZINC000991934963    0.0900
     50 H50         2.2267    6.4524   42.8215 H       1  ZINC000991934963    0.0900
     51 H51         3.1698    5.7786   41.3870 H       1  ZINC000991934963    0.0900
     52 H52         1.6713    2.0560   49.7416 H       1  ZINC000991934963    0.0800
     53 H53         2.0198    2.2843   47.9953 H       1  ZINC000991934963    0.0800
     54 H54         1.9885    4.4038   49.7990 H       1  ZINC000991934963    0.0700
     55 H55         1.5488    4.5995   48.0771 H       1  ZINC000991934963    0.0700
     56 H56        -0.1875    4.9620   50.3691 H       1  ZINC000991934963    0.0700
     57 H57        -0.6644    4.9961   48.6425 H       1  ZINC000991934963    0.0700
@<TRIPOS>BOND
     1     1     2    1
     2     1    31    1
     3     1    32    1
     4     1    33    1
     5     2     3    1
     6     3    30   ar
     7     3     4   ar
     8     4     5   ar
     9     5     6   ar
    10     5    34    1
    11     6     7   ar
    12     6    35    1
    13     7     8    1
    14     7    30   ar
    15     8     9    1
    16     8    36    1
    17     8    37    1
    18     9    28    1
    19     9    10    1
    20    10    11    1
    21    10    38    1
    22    10    39    1
    23    11    12    1
    24    11    40    1
    25    11    41    1
    26    12    28    1
    27    12    13    1
    28    12    25    1
    29    13    14   am
    30    13    42    1
    31    14    15    2
    32    14    16    1
    33    16    17    1
    34    16    43    1
    35    16    44    1
    36    17    18    1
    37    17    20    1
    38    17    19    1
    39    19    20    1
    40    19    45    1
    41    19    46    1
    42    20    21    1
    43    20    22    1
    44    22    24    1
    45    22    23    1
    46    22    47    1
    47    23    24    1
    48    23    48    1
    49    23    49    1
    50    24    50    1
    51    24    51    1
    52    25    26    1
    53    25    52    1
    54    25    53    1
    55    26    27    1
    56    26    54    1
    57    26    55    1
    58    27    28    1
    59    27    56    1
    60    27    57    1
    61    28    29    1
@<TRIPOS>SUBSTRUCTURE
     1 ZINC000991934963        1 TEMP              0 ****  ****    0 ROOT


##########                                Name:    ZINC000006915700
##########                DOCK_Rotatable_Bonds:                   5
##########                         Heavy_Atoms:                  26
##########                    Molecular_Weight:             369.447
##########                DOCK_Rotatable_Bonds:                   5
##########                       Formal_Charge:        -1.04308e-07
##########                     HBond_Acceptors:                   8
##########                        HBond_Donors:                   1
##########                         Heavy_Atoms:                  26
##########                          Grid_Score:          -29.840279
##########                     Grid_vdw_energy:          -29.647940
##########                      Grid_es_energy:           -0.192339
##########           Internal_energy_repulsive:            3.097250

@<TRIPOS>MOLECULE
ZINC000006915700
 45 48 1 0 0
SMALL
USER_CHARGES


@<TRIPOS>ATOM
      1 C1          0.1250    0.3673   45.4798 C.3     1  <0>        -0.1200
      2 C2         -0.6224    0.8675   46.6891 C.ar    1  <0>        -0.0500
      3 C3         -0.7726    2.2277   46.8921 C.ar    1  <0>        -0.1300
      4 C4         -1.4562    2.6918   47.9972 C.ar    1  <0>        -0.0600
      5 C5         -1.9962    1.7863   48.9107 C.ar    1  <0>        -0.0700
      6 C6         -2.7315    2.2778   50.0985 C.2     1  <0>         0.4400
      7 N7         -3.9130    1.7534   50.3969 N.2     1  <0>        -0.5200
      8 C8         -4.5879    2.1866   51.4659 C.2     1  <0>         0.3600
      9 C9         -5.8138    1.8404   52.0196 C.2     1  <0>        -0.3200
     10 C10        -6.0090    2.6349   53.1505 C.2     1  <0>         0.5500
     11 O11        -6.9817    2.6013   53.8866 O.2     1  <0>        -0.5200
     12 N12        -4.9416    3.4448   53.2923 N.am    1  <0>        -0.5000
     13 N13        -4.0444    3.1812   52.2527 N.pl3   1  <0>        -0.3300
     14 C14        -2.8267    3.7002   51.9190 C.2     1  <0>         0.3900
     15 S15        -2.1036    4.9713   52.9019 S.3     1  <0>         0.1200
     16 C16        -0.9995    3.9784   53.9370 C.3     1  <0>        -0.1500
     17 C17        -1.5218    3.9556   55.3505 C.2     1  <0>         0.5500
     18 O18        -2.6670    4.2829   55.5792 O.2     1  <0>        -0.5200
     19 N19        -0.7162    3.5717   56.3604 N.am    1  <0>        -0.6100
     20 C20         0.6877    3.1562   56.2261 C.3     1  <0>         0.0900
     21 C21         1.1922    2.7838   57.6361 C.3     1  <0>        -0.1300
     22 C22        -0.1195    2.4694   58.4028 C.3     1  <0>        -0.1400
     23 C23        -1.0949    3.5046   57.7837 C.3     1  <0>         0.1000
     24 N24        -2.1913    3.2372   50.8539 N.2     1  <0>        -0.5600
     25 C25        -1.8414    0.4161   48.7003 C.ar    1  <0>        -0.0500
     26 C26        -1.1603   -0.0357   47.5887 C.ar    1  <0>        -0.1300
     27 H27        -0.5713    0.2343   44.6518 H       1  <0>         0.0800
     28 H28         0.8889    1.0924   45.1992 H       1  <0>         0.0700
     29 H29         0.5978   -0.5866   45.7137 H       1  <0>         0.0700
     30 H30        -0.3537    2.9277   46.1845 H       1  <0>         0.1300
     31 H31        -1.5725    3.7539   48.1549 H       1  <0>         0.1300
     32 H32        -6.4941    1.0912   51.6425 H       1  <0>         0.1800
     33 H33        -4.8165    4.0998   53.9967 H       1  <0>         0.4400
     34 H34        -0.9559    2.9606   53.5494 H       1  <0>         0.1400
     35 H35        -0.0008    4.4148   53.9257 H       1  <0>         0.1400
     36 H36         0.7568    2.2908   55.5671 H       1  <0>         0.0800
     37 H37         1.2808    3.9783   55.8253 H       1  <0>         0.0800
     38 H38         1.8355    1.9047   57.5958 H       1  <0>         0.0900
     39 H39         1.7142    3.6243   58.0934 H       1  <0>         0.0800
     40 H40        -0.4513    1.4495   58.2076 H       1  <0>         0.0800
     41 H41         0.0023    2.6409   59.4723 H       1  <0>         0.0900
     42 H42        -0.9698    4.4765   58.2611 H       1  <0>         0.0800
     43 H43        -2.1248    3.1620   57.8829 H       1  <0>         0.0800
     44 H44        -2.2573   -0.2899   49.4041 H       1  <0>         0.1400
     45 H45        -1.0400   -1.0963   47.4246 H       1  <0>         0.1300
@<TRIPOS>BOND
     1     1     2    1
     2     1    27    1
     3     1    28    1
     4     1    29    1
     5     2    26   ar
     6     2     3   ar
     7     3     4   ar
     8     3    30    1
     9     4     5   ar
    10     4    31    1
    11     5     6    1
    12     5    25   ar
    13     6    24    1
    14     6     7    2
    15     7     8    1
    16     8    13    1
    17     8     9    2
    18     9    10    1
    19     9    32    1
    20    10    11    2
    21    10    12   am
    22    12    13    1
    23    12    33    1
    24    13    14    1
    25    14    15    1
    26    14    24    2
    27    15    16    1
    28    16    17    1
    29    16    34    1
    30    16    35    1
    31    17    18    2
    32    17    19   am
    33    19    23    1
    34    19    20    1
    35    20    21    1
    36    20    36    1
    37    20    37    1
    38    21    22    1
    39    21    38    1
    40    21    39    1
    41    22    23    1
    42    22    40    1
    43    22    41    1
    44    23    42    1
    45    23    43    1
    46    25    26   ar
    47    25    44    1
    48    26    45    1
@<TRIPOS>SUBSTRUCTURE
     1 <0>         1 TEMP              0 ****  ****    0 ROOT


##########                                Name:    ZINC000842947763
##########                DOCK_Rotatable_Bonds:                   7
##########                         Heavy_Atoms:                  24
##########                    Molecular_Weight:             365.373
##########                DOCK_Rotatable_Bonds:                   7
##########                       Formal_Charge:          0.00999997
##########                     HBond_Acceptors:                   9
##########                        HBond_Donors:                   0
##########                         Heavy_Atoms:                  24
##########                          Grid_Score:          -29.829832
##########                     Grid_vdw_energy:          -29.344570
##########                      Grid_es_energy:           -0.485261
##########           Internal_energy_repulsive:           35.388660

@<TRIPOS>MOLECULE
ZINC000842947763
 42 43 1 0 0
SMALL
USER_CHARGES


@<TRIPOS>ATOM
      1 C1         -0.6027    2.1998   47.5806 C.3     1  ZINC000842947763   -0.1600
      2 C2         -1.6248    1.4287   48.4182 C.3     1  ZINC000842947763   -0.1000
      3 H3         -2.4674    1.1414   47.7894 H       1  ZINC000842947763    0.1000
      4 C4         -2.1210    2.3163   49.5615 C.3     1  ZINC000842947763    0.0800
      5 O5         -3.1915    1.6386   50.2707 O.3     1  ZINC000842947763   -0.3500
      6 C6         -3.7754    2.3097   51.2831 C.2     1  ZINC000842947763    0.5200
      7 O7         -3.1854    3.2219   51.8275 O.2     1  ZINC000842947763   -0.5100
      8 C8         -5.1294    1.9369   51.7302 C.ar    1  ZINC000842947763   -0.1600
      9 C9         -5.7520    0.7957   51.2148 C.ar    1  ZINC000842947763   -0.0200
     10 C10        -7.0140    0.4536   51.6360 C.ar    1  ZINC000842947763   -0.1700
     11 C11        -7.6831    1.2420   52.5801 C.ar    1  ZINC000842947763    0.2000
     12 C12        -7.0557    2.3743   53.0865 C.ar    1  ZINC000842947763   -0.1500
     13 C13        -5.7983    2.7184   52.6769 C.ar    1  ZINC000842947763   -0.0100
     14 C14        -7.9882    3.0351   54.0777 C.3     1  ZINC000842947763   -0.0800
     15 C15        -9.2389    2.1410   54.0825 C.3     1  ZINC000842947763    0.1100
     16 N16        -8.9481    1.0680   53.1284 N.am    1  ZINC000842947763   -0.9400
     17 S17        -9.9788   -0.1735   52.7563 S.o2    1  ZINC000842947763    2.6100
     18 C18       -11.4545    0.6468   52.0929 C.3     1  ZINC000842947763   -0.6700
     19 O19        -9.3056   -0.8931   51.7325 O.2     1  ZINC000842947763   -0.9300
     20 O20       -10.2657   -0.7784   54.0097 O.2     1  ZINC000842947763   -0.9400
     21 C21        -0.9680    0.1733   48.9956 C.3     1  ZINC000842947763   -0.1600
     22 C22        -0.3041   -0.6195   47.8679 C.3     1  ZINC000842947763    0.4600
     23 F23        -1.1056   -0.5617   46.7228 F       1  ZINC000842947763   -0.1800
     24 F24         0.9510   -0.0690   47.5870 F       1  ZINC000842947763   -0.1800
     25 F25        -0.1506   -1.9527   48.2628 F       1  ZINC000842947763   -0.1800
     26 H26        -0.3542    1.6233   46.6896 H       1  ZINC000842947763    0.0700
     27 H27        -1.0251    3.1604   47.2859 H       1  ZINC000842947763    0.0700
     28 H28         0.2994    2.3650   48.1698 H       1  ZINC000842947763    0.0600
     29 H29        -1.2993    2.5164   50.2491 H       1  ZINC000842947763    0.0800
     30 H30        -2.4927    3.2573   49.1557 H       1  ZINC000842947763    0.0800
     31 H31        -5.2413    0.1840   50.4859 H       1  ZINC000842947763    0.1500
     32 H32        -7.4929   -0.4283   51.2365 H       1  ZINC000842947763    0.1500
     33 H33        -5.3234    3.6009   53.0795 H       1  ZINC000842947763    0.1400
     34 H34        -7.5345    3.0605   55.0684 H       1  ZINC000842947763    0.1000
     35 H35        -8.2419    4.0428   53.7483 H       1  ZINC000842947763    0.1000
     36 H36        -9.4043    1.7277   55.0775 H       1  ZINC000842947763    0.1000
     37 H37       -10.1110    2.7089   53.7584 H       1  ZINC000842947763    0.0900
     38 H38       -11.1820    1.2275   51.2115 H       1  ZINC000842947763    0.1300
     39 H39       -12.1952   -0.1043   51.8183 H       1  ZINC000842947763    0.1400
     40 H40       -11.8729    1.3100   52.8500 H       1  ZINC000842947763    0.1300
     41 H41        -0.2150    0.4617   49.7290 H       1  ZINC000842947763    0.1200
     42 H42        -1.7260   -0.4448   49.4768 H       1  ZINC000842947763    0.1100
@<TRIPOS>BOND
     1     1     2    1
     2     1    26    1
     3     1    27    1
     4     1    28    1
     5     2     3    1
     6     2     4    1
     7     2    21    1
     8     4     5    1
     9     4    29    1
    10     4    30    1
    11     5     6    1
    12     6     7    2
    13     6     8    1
    14     8    13   ar
    15     8     9   ar
    16     9    10   ar
    17     9    31    1
    18    10    11   ar
    19    10    32    1
    20    11    16    1
    21    11    12   ar
    22    12    13   ar
    23    12    14    1
    24    13    33    1
    25    14    15    1
    26    14    34    1
    27    14    35    1
    28    15    16    1
    29    15    36    1
    30    15    37    1
    31    16    17   am
    32    17    18    1
    33    17    19    2
    34    17    20    2
    35    18    38    1
    36    18    39    1
    37    18    40    1
    38    21    22    1
    39    21    41    1
    40    21    42    1
    41    22    23    1
    42    22    24    1
    43    22    25    1
@<TRIPOS>SUBSTRUCTURE
     1 ZINC000842947763        1 TEMP              0 ****  ****    0 ROOT


##########                                Name:    ZINC000007167963
##########                DOCK_Rotatable_Bonds:                   8
##########                         Heavy_Atoms:                  25
##########                    Molecular_Weight:             378.433
##########                DOCK_Rotatable_Bonds:                   8
##########                       Formal_Charge:        -1.01328e-06
##########                     HBond_Acceptors:                  10
##########                        HBond_Donors:                   3
##########                         Heavy_Atoms:                  25
##########                          Grid_Score:          -29.808203
##########                     Grid_vdw_energy:          -28.839516
##########                      Grid_es_energy:           -0.968688
##########           Internal_energy_repulsive:            6.614627

@<TRIPOS>MOLECULE
ZINC000007167963
 39 41 1 0 0
SMALL
USER_CHARGES


@<TRIPOS>ATOM
      1 C1        -10.7197    3.6464   52.2210 C.3     1  ZINC000007167963   -0.0800
      2 C2        -11.7816    2.6293   52.5516 C.2     1  ZINC000007167963    0.0900
      3 C3        -11.6085    1.2798   52.5841 C.2     1  ZINC000007167963   -0.1500
      4 C4        -10.3636    0.5326   52.3074 C.2     1  ZINC000007167963    0.2600
      5 N5        -10.2185   -0.7699   52.3315 N.2     1  ZINC000007167963   -0.2700
      6 N6         -9.0020   -1.0702   52.0403 N.2     1  ZINC000007167963   -0.2800
      7 C7         -8.3215    0.0288   51.8186 C.2     1  ZINC000007167963    0.1200
      8 S8         -6.6166    0.1302   51.3854 S.3     1  ZINC000007167963    0.1500
      9 C9         -6.4142    1.9279   51.3244 C.3     1  ZINC000007167963   -0.1200
     10 H10        -7.2921    2.3768   50.8599 H       1  ZINC000007167963    0.1400
     11 C11        -6.2550    2.4716   52.7456 C.3     1  ZINC000007167963   -0.1500
     12 C12        -5.1887    2.2683   50.5161 C.2     1  ZINC000007167963    0.5300
     13 O13        -5.3061    2.7874   49.4263 O.2     1  ZINC000007167963   -0.4900
     14 N14        -3.9624    1.9958   51.0043 N.am    1  ZINC000007167963   -0.6100
     15 C15        -2.8348    2.3106   50.2612 C.2     1  ZINC000007167963    0.0800
     16 C16        -1.8882    3.2298   50.6327 C.2     1  ZINC000007167963   -0.2400
     17 C17        -1.9523    4.0029   51.8769 C.2     1  ZINC000007167963    0.5900
     18 N18        -1.1588    3.6749   52.9158 N.am    1  ZINC000007167963   -0.8400
     19 O19        -2.7220    4.9409   51.9715 O.2     1  ZINC000007167963   -0.5600
     20 C20        -0.8188    3.3552   49.6668 C.2     1  ZINC000007167963   -0.0900
     21 C21        -0.9676    2.5583   48.6181 C.2     1  ZINC000007167963   -0.2800
     22 S22        -2.4317    1.6025   48.7642 S.3     1  ZINC000007167963    0.3000
     23 O23        -9.1669    1.0661   51.9772 O.3     1  ZINC000007167963   -0.2000
     24 C24       -12.9156    0.7200   52.9521 C.2     1  ZINC000007167963   -0.1800
     25 C25       -13.7390    1.7701   53.1039 C.2     1  ZINC000007167963   -0.0300
     26 O26       -13.0555    2.9005   52.8692 O.3     1  ZINC000007167963   -0.1700
     27 H27       -11.1456    4.6480   52.2785 H       1  ZINC000007167963    0.0800
     28 H28        -9.8989    3.5592   52.9329 H       1  ZINC000007167963    0.1000
     29 H29       -10.3466    3.4675   51.2126 H       1  ZINC000007167963    0.1000
     30 H30        -7.1413    2.2254   53.3303 H       1  ZINC000007167963    0.0900
     31 H31        -5.3771    2.0227   53.2102 H       1  ZINC000007167963    0.0800
     32 H32        -6.1332    3.5541   52.7089 H       1  ZINC000007167963    0.0800
     33 H33        -3.8687    1.5795   51.8754 H       1  ZINC000007167963    0.4400
     34 H34        -1.2022    4.1857   53.7393 H       1  ZINC000007167963    0.4000
     35 H35        -0.5445    2.9281   52.8400 H       1  ZINC000007167963    0.4100
     36 H36         0.0156    4.0300   49.7874 H       1  ZINC000007167963    0.1500
     37 H37        -0.2788    2.5022   47.7881 H       1  ZINC000007167963    0.1700
     38 H38       -13.1641   -0.3238   53.0749 H       1  ZINC000007167963    0.1600
     39 H39       -14.7828    1.7138   53.3755 H       1  ZINC000007167963    0.2200
@<TRIPOS>BOND
     1     1     2    1
     2     1    27    1
     3     1    28    1
     4     1    29    1
     5     2    26    1
     6     2     3    2
     7     3     4    1
     8     3    24    1
     9     4    23    1
    10     4     5    2
    11     5     6    1
    12     6     7    2
    13     7     8    1
    14     7    23    1
    15     8     9    1
    16     9    10    1
    17     9    11    1
    18     9    12    1
    19    11    30    1
    20    11    31    1
    21    11    32    1
    22    12    13    2
    23    12    14   am
    24    14    15    1
    25    14    33    1
    26    15    22    1
    27    15    16    2
    28    16    17    1
    29    16    20    1
    30    17    18   am
    31    17    19    2
    32    18    34    1
    33    18    35    1
    34    20    21    2
    35    20    36    1
    36    21    22    1
    37    21    37    1
    38    24    25    2
    39    24    38    1
    40    25    26    1
    41    25    39    1
@<TRIPOS>SUBSTRUCTURE
     1 ZINC000007167963        1 TEMP              0 ****  ****    0 ROOT


##########                                Name:    ZINC001312809190
##########                DOCK_Rotatable_Bonds:                   6
##########                         Heavy_Atoms:                  29
##########                    Molecular_Weight:             395.501
##########                DOCK_Rotatable_Bonds:                   6
##########                       Formal_Charge:           0.0199995
##########                     HBond_Acceptors:                   6
##########                        HBond_Donors:                   1
##########                         Heavy_Atoms:                  29
##########                          Grid_Score:          -29.802242
##########                     Grid_vdw_energy:          -28.631298
##########                      Grid_es_energy:           -1.170945
##########           Internal_energy_repulsive:           28.286367

@<TRIPOS>MOLECULE
ZINC001312809190
 58 61 1 0 0
SMALL
USER_CHARGES


@<TRIPOS>ATOM
      1 C1        -10.0941    1.4934   54.6857 C.3     1  ZINC001312809190    0.0300
      2 O2         -9.1447    1.5921   55.7493 O.3     1  ZINC001312809190   -0.3200
      3 C3         -8.0707    2.3993   55.5446 C.ar    1  ZINC001312809190    0.1300
      4 C4         -7.1273    2.5680   56.5473 C.ar    1  ZINC001312809190   -0.2100
      5 C5         -6.0361    3.3888   56.3366 C.ar    1  ZINC001312809190   -0.0800
      6 C6         -5.8842    4.0420   55.1277 C.ar    1  ZINC001312809190   -0.1300
      7 C7         -6.8237    3.8758   54.1266 C.ar    1  ZINC001312809190   -0.0500
      8 C8         -6.6553    4.5897   52.8101 C.3     1  ZINC001312809190    0.1200
      9 H9         -5.9408    5.4045   52.9275 H       1  ZINC001312809190    0.0500
     10 C10        -8.0040    5.1549   52.3603 C.3     1  ZINC001312809190   -0.1400
     11 N11        -6.1590    3.6449   51.8006 N.3     1  ZINC001312809190   -0.5300
     12 C12        -4.9657    2.9374   52.2834 C.3     1  ZINC001312809190    0.0300
     13 C13        -4.5876    1.8392   51.2838 C.3     1  ZINC001312809190    0.1400
     14 N14        -4.4538    2.4465   49.9510 N.am    1  ZINC001312809190   -0.6300
     15 C15        -3.3512    2.2395   49.2040 C.2     1  ZINC001312809190    0.7100
     16 O16        -3.2575    2.7496   48.1043 O.2     1  ZINC001312809190   -0.5800
     17 N17        -2.3526    1.4673   49.6761 N.am    1  ZINC001312809190   -0.7300
     18 C18        -1.1542    1.2424   48.8642 C.3     1  ZINC001312809190    0.1800
     19 H19        -1.4054    1.2061   47.8042 H       1  ZINC001312809190    0.1200
     20 C20        -0.1073    2.3050   49.1371 C.ar    1  ZINC001312809190   -0.1900
     21 C21        -0.1849    3.6765   49.2318 C.ar    1  ZINC001312809190   -0.0500
     22 C22         0.9527    4.4163   49.5036 C.ar    1  ZINC001312809190   -0.1500
     23 C23         2.1639    3.7735   49.6791 C.ar    1  ZINC001312809190   -0.0800
     24 C24         2.2445    2.3996   49.5811 C.ar    1  ZINC001312809190   -0.1400
     25 C25         1.1054    1.6482   49.3045 C.ar    1  ZINC001312809190    0.1100
     26 O26         0.9631    0.3033   49.1485 O.3     1  ZINC001312809190   -0.2900
     27 C27        -0.4230   -0.0483   49.3035 C.3     1  ZINC001312809190    0.0800
     28 H28        -0.6476   -0.2840   50.3438 H       1  ZINC001312809190    0.0900
     29 C29        -0.7896   -1.2218   48.3928 C.3     1  ZINC001312809190   -0.1500
     30 C30        -5.5554    3.2852   49.4547 C.3     1  ZINC001312809190    0.1200
     31 C31        -5.8953    4.3265   50.5263 C.3     1  ZINC001312809190    0.0400
     32 C32        -7.9131    3.0515   54.3301 C.ar    1  ZINC001312809190   -0.1500
     33 H33       -10.8991    0.8195   54.9787 H       1  ZINC001312809190    0.1000
     34 H34       -10.5055    2.4802   54.4732 H       1  ZINC001312809190    0.0600
     35 H35        -9.6017    1.1053   53.7941 H       1  ZINC001312809190    0.0600
     36 H36        -7.2459    2.0586   57.4922 H       1  ZINC001312809190    0.1300
     37 H37        -5.3013    3.5206   57.1170 H       1  ZINC001312809190    0.1300
     38 H38        -5.0308    4.6835   54.9650 H       1  ZINC001312809190    0.1300
     39 H39        -8.7185    4.3400   52.2429 H       1  ZINC001312809190    0.0700
     40 H40        -8.3724    5.8559   53.1093 H       1  ZINC001312809190    0.0600
     41 H41        -7.8822    5.6713   51.4081 H       1  ZINC001312809190    0.0600
     42 H42        -4.1393    3.6417   52.3797 H       1  ZINC001312809190    0.0400
     43 H43        -5.1766    2.4888   53.2542 H       1  ZINC001312809190    0.1000
     44 H44        -3.6400    1.3874   51.5772 H       1  ZINC001312809190    0.1000
     45 H45        -5.3681    1.0786   51.2630 H       1  ZINC001312809190    0.0700
     46 H46        -2.4274    1.0605   50.5536 H       1  ZINC001312809190    0.4000
     47 H47        -1.1331    4.1747   49.0936 H       1  ZINC001312809190    0.1200
     48 H48         0.8944    5.4921   49.5781 H       1  ZINC001312809190    0.1300
     49 H49         3.0517    4.3497   49.8936 H       1  ZINC001312809190    0.1300
     50 H50         3.1948    1.9052   49.7191 H       1  ZINC001312809190    0.1300
     51 H51        -0.1949   -2.0934   48.6661 H       1  ZINC001312809190    0.0800
     52 H52        -1.8485   -1.4538   48.5076 H       1  ZINC001312809190    0.0800
     53 H53        -0.5867   -0.9542   47.3558 H       1  ZINC001312809190    0.0700
     54 H54        -5.2476    3.7895   48.5387 H       1  ZINC001312809190    0.0800
     55 H55        -6.4289    2.6636   49.2581 H       1  ZINC001312809190    0.0800
     56 H56        -6.7806    4.8853   50.2226 H       1  ZINC001312809190    0.0900
     57 H57        -5.0560    5.0114   50.6471 H       1  ZINC001312809190    0.0400
     58 H58        -8.6463    2.9217   53.5478 H       1  ZINC001312809190    0.1300
@<TRIPOS>BOND
     1     1     2    1
     2     1    33    1
     3     1    34    1
     4     1    35    1
     5     2     3    1
     6     3    32   ar
     7     3     4   ar
     8     4     5   ar
     9     4    36    1
    10     5     6   ar
    11     5    37    1
    12     6     7   ar
    13     6    38    1
    14     7     8    1
    15     7    32   ar
    16     8     9    1
    17     8    10    1
    18     8    11    1
    19    10    39    1
    20    10    40    1
    21    10    41    1
    22    11    31    1
    23    11    12    1
    24    12    13    1
    25    12    42    1
    26    12    43    1
    27    13    14    1
    28    13    44    1
    29    13    45    1
    30    14    15   am
    31    14    30    1
    32    15    16    2
    33    15    17   am
    34    17    18    1
    35    17    46    1
    36    18    19    1
    37    18    27    1
    38    18    20    1
    39    20    25   ar
    40    20    21   ar
    41    21    22   ar
    42    21    47    1
    43    22    23   ar
    44    22    48    1
    45    23    24   ar
    46    23    49    1
    47    24    25   ar
    48    24    50    1
    49    25    26    1
    50    26    27    1
    51    27    28    1
    52    27    29    1
    53    29    51    1
    54    29    52    1
    55    29    53    1
    56    30    31    1
    57    30    54    1
    58    30    55    1
    59    31    56    1
    60    31    57    1
    61    32    58    1
@<TRIPOS>SUBSTRUCTURE
     1 ZINC001312809190        1 TEMP              0 ****  ****    0 ROOT


##########                                Name:    ZINC000655235556
##########                DOCK_Rotatable_Bonds:                   6
##########                         Heavy_Atoms:                  23
##########                    Molecular_Weight:             336.778
##########                DOCK_Rotatable_Bonds:                   6
##########                       Formal_Charge:         -0.00999996
##########                     HBond_Acceptors:                   8
##########                        HBond_Donors:                   2
##########                         Heavy_Atoms:                  23
##########                          Grid_Score:          -29.764294
##########                     Grid_vdw_energy:          -29.004385
##########                      Grid_es_energy:           -0.759909
##########           Internal_energy_repulsive:            5.051544

@<TRIPOS>MOLECULE
ZINC000655235556
 40 42 1 0 0
SMALL
USER_CHARGES


@<TRIPOS>ATOM
      1 C1          0.6422   -0.9732   49.6154 C.3     1  ZINC000655235556    0.0200
      2 O2         -0.6812   -0.8346   49.0942 O.3     1  ZINC000655235556   -0.2700
      3 C3         -0.8205   -0.1204   47.9493 C.ar    1  ZINC000655235556    0.2000
      4 C4         -0.4058   -0.6559   46.7400 C.ar    1  ZINC000655235556   -0.2100
      5 C5         -0.5489    0.0731   45.5741 C.ar    1  ZINC000655235556    0.0300
      6 Cl6        -0.0272   -0.6040   44.0631 Cl      1  ZINC000655235556   -0.0500
      7 C7         -1.1073    1.3419   45.6049 C.ar    1  ZINC000655235556   -0.1600
      8 C8         -1.5245    1.8886   46.7987 C.ar    1  ZINC000655235556   -0.0300
      9 C9         -1.3900    1.1604   47.9834 C.ar    1  ZINC000655235556   -0.1700
     10 C10        -1.8351    1.7400   49.2644 C.2     1  ZINC000655235556    0.5700
     11 O11        -1.0408    1.8889   50.1731 O.2     1  ZINC000655235556   -0.5100
     12 N12        -3.1223    2.1046   49.4280 N.am    1  ZINC000655235556   -0.7300
     13 C13        -3.5641    2.6819   50.6999 C.3     1  ZINC000655235556    0.2100
     14 C14        -4.8659    2.0461   51.1149 C.2     1  ZINC000655235556    0.2600
     15 N15        -5.7664    2.5808   51.8991 N.2     1  ZINC000655235556   -0.5100
     16 C16        -6.7892    1.7406   52.0514 C.2     1  ZINC000655235556    0.2200
     17 C17        -8.0197    2.0004   52.8818 C.3     1  ZINC000655235556    0.1700
     18 H18        -8.4915    1.0550   53.1494 H       1  ZINC000655235556    0.1100
     19 C19        -9.0130    2.8748   52.0867 C.3     1  ZINC000655235556   -0.1400
     20 C20        -9.5656    3.8259   53.1831 C.3     1  ZINC000655235556   -0.1500
     21 C21        -8.3136    4.0005   54.0793 C.3     1  ZINC000655235556    0.0500
     22 O22        -7.6623    2.7182   54.0686 O.3     1  ZINC000655235556   -0.3700
     23 N23        -6.5526    0.6548   51.3633 N.2     1  ZINC000655235556   -0.2800
     24 N24        -5.3070    0.8331   50.7394 N.pl3   1  ZINC000655235556   -0.4700
     25 H25         1.2719   -1.4734   48.8797 H       1  ZINC000655235556    0.0600
     26 H26         1.0518    0.0131   49.8338 H       1  ZINC000655235556    0.0600
     27 H27         0.6122   -1.5649   50.5304 H       1  ZINC000655235556    0.1100
     28 H28         0.0299   -1.6436   46.7086 H       1  ZINC000655235556    0.1500
     29 H29        -1.2152    1.9042   44.6892 H       1  ZINC000655235556    0.1400
     30 H30        -1.9586    2.8773   46.8181 H       1  ZINC000655235556    0.1400
     31 H31        -3.7562    1.9847   48.7036 H       1  ZINC000655235556    0.4000
     32 H32        -2.8095    2.4971   51.4645 H       1  ZINC000655235556    0.1000
     33 H33        -3.7059    3.7562   50.5816 H       1  ZINC000655235556    0.1100
     34 H34        -8.4975    3.4378   51.3086 H       1  ZINC000655235556    0.0800
     35 H35        -9.8117    2.2665   51.6624 H       1  ZINC000655235556    0.0900
     36 H36        -9.8785    4.7785   52.7555 H       1  ZINC000655235556    0.0900
     37 H37       -10.3812    3.3581   53.7343 H       1  ZINC000655235556    0.0800
     38 H38        -7.6550    4.7636   53.6646 H       1  ZINC000655235556    0.0600
     39 H39        -8.6091    4.2655   55.0944 H       1  ZINC000655235556    0.0900
     40 H40        -4.8524    0.2034   50.1583 H       1  ZINC000655235556    0.4400
@<TRIPOS>BOND
     1     1     2    1
     2     1    25    1
     3     1    26    1
     4     1    27    1
     5     2     3    1
     6     3     9   ar
     7     3     4   ar
     8     4     5   ar
     9     4    28    1
    10     5     6    1
    11     5     7   ar
    12     7     8   ar
    13     7    29    1
    14     8     9   ar
    15     8    30    1
    16     9    10    1
    17    10    11    2
    18    10    12   am
    19    12    13    1
    20    12    31    1
    21    13    14    1
    22    13    32    1
    23    13    33    1
    24    14    24    1
    25    14    15    2
    26    15    16    1
    27    16    17    1
    28    16    23    2
    29    17    18    1
    30    17    22    1
    31    17    19    1
    32    19    20    1
    33    19    34    1
    34    19    35    1
    35    20    21    1
    36    20    36    1
    37    20    37    1
    38    21    22    1
    39    21    38    1
    40    21    39    1
    41    23    24    1
    42    24    40    1
@<TRIPOS>SUBSTRUCTURE
     1 ZINC000655235556        1 TEMP              0 ****  ****    0 ROOT


##########                                Name:    ZINC000536173632
##########                DOCK_Rotatable_Bonds:                   7
##########                         Heavy_Atoms:                  29
##########                    Molecular_Weight:             407.389
##########                DOCK_Rotatable_Bonds:                   7
##########                       Formal_Charge:        -2.98023e-07
##########                     HBond_Acceptors:                   8
##########                        HBond_Donors:                   0
##########                         Heavy_Atoms:                  29
##########                          Grid_Score:          -29.726883
##########                     Grid_vdw_energy:          -28.586487
##########                      Grid_es_energy:           -1.140396
##########           Internal_energy_repulsive:           20.174435

@<TRIPOS>MOLECULE
ZINC000536173632
 49 51 1 0 0
SMALL
USER_CHARGES


@<TRIPOS>ATOM
      1 C1         -8.8578    0.2948   58.5412 C.3     1  ZINC000536173632    0.0400
      2 O2         -9.7072   -0.0258   57.4079 O.3     1  ZINC000536173632   -0.3500
      3 C3        -10.1961    1.0092   56.6980 C.2     1  ZINC000536173632    0.5100
      4 O4        -11.3838    1.0684   56.4497 O.2     1  ZINC000536173632   -0.5000
      5 C5         -9.2880    2.0724   56.2211 C.ar    1  ZINC000536173632   -0.1300
      6 C6         -8.7804    3.0150   57.1172 C.ar    1  ZINC000536173632   -0.0600
      7 C7         -7.9329    4.0053   56.6652 C.ar    1  ZINC000536173632   -0.1300
      8 C8         -7.5863    4.0660   55.3272 C.ar    1  ZINC000536173632   -0.0700
      9 C9         -8.0858    3.1349   54.4336 C.ar    1  ZINC000536173632   -0.0800
     10 C10        -7.7025    3.2090   52.9779 C.3     1  ZINC000536173632   -0.1000
     11 C11        -6.2622    2.7964   52.8162 C.2     1  ZINC000536173632    0.5200
     12 O12        -5.7367    2.0889   53.6494 O.2     1  ZINC000536173632   -0.5200
     13 N13        -5.5579    3.2137   51.7455 N.am    1  ZINC000536173632   -0.6200
     14 C14        -6.1738    4.0726   50.7215 C.3     1  ZINC000536173632    0.0700
     15 C15        -5.9049    3.4531   49.3454 C.3     1  ZINC000536173632    0.0500
     16 O16        -4.5039    3.2047   49.2066 O.3     1  ZINC000536173632   -0.3700
     17 C17        -3.9799    2.2657   50.1488 C.3     1  ZINC000536173632    0.1200
     18 H18        -4.5198    1.3228   50.0618 H       1  ZINC000536173632    0.0800
     19 C19        -2.5169    2.0358   49.8697 C.ar    1  ZINC000536173632   -0.0900
     20 C20        -1.5904    3.0090   50.1931 C.ar    1  ZINC000536173632   -0.0600
     21 C21        -0.2482    2.7981   49.9370 C.ar    1  ZINC000536173632   -0.1200
     22 C22         0.1670    1.6138   49.3581 C.ar    1  ZINC000536173632   -0.0700
     23 C23        -0.7596    0.6398   49.0355 C.ar    1  ZINC000536173632   -0.1800
     24 C24        -0.3069   -0.6514   48.4039 C.3     1  ZINC000536173632    0.5100
     25 F25         1.0912   -0.6913   48.3750 F       1  ZINC000536173632   -0.1800
     26 F26        -0.7889   -1.7308   49.1521 F       1  ZINC000536173632   -0.1800
     27 F27        -0.8027   -0.7308   47.0982 F       1  ZINC000536173632   -0.1800
     28 C28        -2.1009    0.8489   49.2954 C.ar    1  ZINC000536173632   -0.0500
     29 C29        -4.1486    2.8290   51.5690 C.3     1  ZINC000536173632    0.0900
     30 C30        -8.9291    2.1358   54.8731 C.ar    1  ZINC000536173632   -0.0400
     31 H31        -7.9862    0.8510   58.1961 H       1  ZINC000536173632    0.0600
     32 H32        -9.4168    0.9010   59.2541 H       1  ZINC000536173632    0.0600
     33 H33        -8.5329   -0.6268   59.0240 H       1  ZINC000536173632    0.1000
     34 H34        -9.0508    2.9692   58.1618 H       1  ZINC000536173632    0.1400
     35 H35        -7.5394    4.7351   57.3574 H       1  ZINC000536173632    0.1400
     36 H36        -6.9229    4.8437   54.9786 H       1  ZINC000536173632    0.1300
     37 H37        -8.3395    2.5393   52.4000 H       1  ZINC000536173632    0.1100
     38 H38        -7.8303    4.2307   52.6202 H       1  ZINC000536173632    0.1100
     39 H39        -7.2485    4.1347   50.8925 H       1  ZINC000536173632    0.1000
     40 H40        -5.7361    5.0698   50.7671 H       1  ZINC000536173632    0.0800
     41 H41        -6.4518    2.5145   49.2555 H       1  ZINC000536173632    0.0600
     42 H42        -6.2315    4.1417   48.5661 H       1  ZINC000536173632    0.1100
     43 H43        -1.9149    3.9345   50.6454 H       1  ZINC000536173632    0.1400
     44 H44         0.4757    3.5589   50.1891 H       1  ZINC000536173632    0.1400
     45 H45         1.2155    1.4492   49.1574 H       1  ZINC000536173632    0.1400
     46 H46        -2.8248    0.0881   49.0435 H       1  ZINC000536173632    0.1400
     47 H47        -3.5058    3.6999   51.6973 H       1  ZINC000536173632    0.0800
     48 H48        -3.8836    2.0657   52.3006 H       1  ZINC000536173632    0.1100
     49 H49        -9.3179    1.4097   54.1747 H       1  ZINC000536173632    0.1400
@<TRIPOS>BOND
     1     1     2    1
     2     1    31    1
     3     1    32    1
     4     1    33    1
     5     2     3    1
     6     3     4    2
     7     3     5    1
     8     5    30   ar
     9     5     6   ar
    10     6     7   ar
    11     6    34    1
    12     7     8   ar
    13     7    35    1
    14     8     9   ar
    15     8    36    1
    16     9    10    1
    17     9    30   ar
    18    10    11    1
    19    10    37    1
    20    10    38    1
    21    11    12    2
    22    11    13   am
    23    13    29    1
    24    13    14    1
    25    14    15    1
    26    14    39    1
    27    14    40    1
    28    15    16    1
    29    15    41    1
    30    15    42    1
    31    16    17    1
    32    17    18    1
    33    17    19    1
    34    17    29    1
    35    19    28   ar
    36    19    20   ar
    37    20    21   ar
    38    20    43    1
    39    21    22   ar
    40    21    44    1
    41    22    23   ar
    42    22    45    1
    43    23    24    1
    44    23    28   ar
    45    24    25    1
    46    24    26    1
    47    24    27    1
    48    28    46    1
    49    29    47    1
    50    29    48    1
    51    30    49    1
@<TRIPOS>SUBSTRUCTURE
     1 ZINC000536173632        1 TEMP              0 ****  ****    0 ROOT


##########                                Name:    ZINC000518242403
##########                DOCK_Rotatable_Bonds:                   6
##########                         Heavy_Atoms:                  27
##########                    Molecular_Weight:             370.405
##########                DOCK_Rotatable_Bonds:                   6
##########                       Formal_Charge:          -0.0200004
##########                     HBond_Acceptors:                   7
##########                        HBond_Donors:                   1
##########                         Heavy_Atoms:                  27
##########                          Grid_Score:          -29.723318
##########                     Grid_vdw_energy:          -28.545061
##########                      Grid_es_energy:           -1.178257
##########           Internal_energy_repulsive:           22.199512

@<TRIPOS>MOLECULE
ZINC000518242403
 49 52 1 0 0
SMALL
USER_CHARGES


@<TRIPOS>ATOM
      1 C1          0.5351    0.2207   49.7091 C.3     1  ZINC000518242403   -0.1800
      2 C2         -0.5414   -0.4261   48.8352 C.3     1  ZINC000518242403    0.1000
      3 N3         -1.1800    0.6002   48.0075 N.am    1  ZINC000518242403   -0.6200
      4 C4         -0.7973    0.7500   46.6013 C.3     1  ZINC000518242403    0.1500
      5 C5         -0.2577    2.1624   46.3674 C.3     1  ZINC000518242403    0.0300
      6 H6         -1.0300    2.8946   46.6029 H       1  ZINC000518242403    0.0900
      7 C7          0.9700    2.4012   47.2569 C.3     1  ZINC000518242403    0.0300
      8 O8          1.4567    3.7236   47.0034 O.3     1  ZINC000518242403   -0.3000
      9 C9          1.5714    4.0934   45.6987 C.ar    1  ZINC000518242403    0.0500
     10 C10         2.3565    5.1875   45.3677 C.ar    1  ZINC000518242403   -0.1100
     11 C11         2.4800    5.5771   44.0471 C.ar    1  ZINC000518242403   -0.1200
     12 C12         1.8219    4.8776   43.0533 C.ar    1  ZINC000518242403   -0.1200
     13 C13         1.0389    3.7850   43.3762 C.ar    1  ZINC000518242403   -0.1100
     14 C14         0.9116    3.3882   44.6988 C.ar    1  ZINC000518242403    0.0500
     15 O15         0.1430    2.3060   45.0003 O.3     1  ZINC000518242403   -0.3000
     16 C16        -2.1198    1.4064   48.5397 C.2     1  ZINC000518242403    0.7100
     17 O17        -2.6511    2.2573   47.8523 O.2     1  ZINC000518242403   -0.5700
     18 N18        -2.4708    1.2697   49.8337 N.am    1  ZINC000518242403   -0.6800
     19 C19        -3.4479    2.1080   50.3871 C.ar    1  ZINC000518242403    0.1700
     20 C20        -4.7850    1.7387   50.3429 C.ar    1  ZINC000518242403   -0.1000
     21 C21        -5.7504    2.5675   50.8904 C.ar    1  ZINC000518242403    0.0500
     22 C22        -5.3766    3.7705   51.4844 C.ar    1  ZINC000518242403    0.0200
     23 C23        -4.0408    4.1358   51.5257 C.ar    1  ZINC000518242403   -0.0800
     24 C24        -3.0779    3.3055   50.9846 C.ar    1  ZINC000518242403   -0.1000
     25 C25        -1.6259    3.7061   51.0314 C.3     1  ZINC000518242403   -0.1100
     26 O26        -6.5001    4.3975   51.9433 O.3     1  ZINC000518242403   -0.3100
     27 C27        -7.5992    3.7629   51.2633 C.3     1  ZINC000518242403    0.2100
     28 O28        -7.1068    2.4406   50.9771 O.3     1  ZINC000518242403   -0.3100
     29 H29         1.2842    0.6927   49.0732 H       1  ZINC000518242403    0.0600
     30 H30         0.0779    0.9730   50.3517 H       1  ZINC000518242403    0.0600
     31 H31         1.0104   -0.5429   50.3249 H       1  ZINC000518242403    0.0700
     32 H32        -0.0840   -1.1784   48.1925 H       1  ZINC000518242403    0.1000
     33 H33        -1.2903   -0.8982   49.4710 H       1  ZINC000518242403    0.0700
     34 H34        -0.0255    0.0208   46.3551 H       1  ZINC000518242403    0.1100
     35 H35        -1.6689    0.5845   45.9680 H       1  ZINC000518242403    0.0900
     36 H36         0.6879    2.3080   48.3056 H       1  ZINC000518242403    0.1300
     37 H37         1.7444    1.6724   47.0177 H       1  ZINC000518242403    0.0800
     38 H38         2.8716    5.7358   46.1425 H       1  ZINC000518242403    0.1300
     39 H39         3.0921    6.4294   43.7916 H       1  ZINC000518242403    0.1300
     40 H40         1.9193    5.1852   42.0227 H       1  ZINC000518242403    0.1300
     41 H41         0.5256    3.2401   42.5978 H       1  ZINC000518242403    0.1300
     42 H42        -2.0470    0.5910   50.3821 H       1  ZINC000518242403    0.4100
     43 H43        -5.0728    0.8056   49.8815 H       1  ZINC000518242403    0.1500
     44 H44        -3.7510    5.0686   51.9864 H       1  ZINC000518242403    0.1400
     45 H45        -1.1745    3.3294   51.9492 H       1  ZINC000518242403    0.0800
     46 H46        -1.1050    3.2856   50.1712 H       1  ZINC000518242403    0.0700
     47 H47        -1.5480    4.7930   51.0076 H       1  ZINC000518242403    0.0800
     48 H48        -8.4739    3.7139   51.9119 H       1  ZINC000518242403    0.1300
     49 H49        -7.8352    4.2920   50.3400 H       1  ZINC000518242403    0.0900
@<TRIPOS>BOND
     1     1     2    1
     2     1    29    1
     3     1    30    1
     4     1    31    1
     5     2     3    1
     6     2    32    1
     7     2    33    1
     8     3     4    1
     9     3    16   am
    10     4     5    1
    11     4    34    1
    12     4    35    1
    13     5     6    1
    14     5    15    1
    15     5     7    1
    16     7     8    1
    17     7    36    1
    18     7    37    1
    19     8     9    1
    20     9    14   ar
    21     9    10   ar
    22    10    11   ar
    23    10    38    1
    24    11    12   ar
    25    11    39    1
    26    12    13   ar
    27    12    40    1
    28    13    14   ar
    29    13    41    1
    30    14    15    1
    31    16    17    2
    32    16    18   am
    33    18    19    1
    34    18    42    1
    35    19    24   ar
    36    19    20   ar
    37    20    21   ar
    38    20    43    1
    39    21    28    1
    40    21    22   ar
    41    22    23   ar
    42    22    26    1
    43    23    24   ar
    44    23    44    1
    45    24    25    1
    46    25    45    1
    47    25    46    1
    48    25    47    1
    49    26    27    1
    50    27    28    1
    51    27    48    1
    52    27    49    1
@<TRIPOS>SUBSTRUCTURE
     1 ZINC000518242403        1 TEMP              0 ****  ****    0 ROOT


##########                                Name:    ZINC000809503567
##########                DOCK_Rotatable_Bonds:                   9
##########                         Heavy_Atoms:                  26
##########                    Molecular_Weight:             353.378
##########                DOCK_Rotatable_Bonds:                   9
##########                       Formal_Charge:          -0.0200002
##########                     HBond_Acceptors:                   7
##########                        HBond_Donors:                   1
##########                         Heavy_Atoms:                  26
##########                          Grid_Score:          -29.719620
##########                     Grid_vdw_energy:          -29.059618
##########                      Grid_es_energy:           -0.660001
##########           Internal_energy_repulsive:           10.218698

@<TRIPOS>MOLECULE
ZINC000809503567
 45 46 1 0 0
SMALL
USER_CHARGES


@<TRIPOS>ATOM
      1 C1        -10.8591    0.0588   59.0146 C.3     1  ZINC000809503567    0.0200
      2 O2        -10.2667   -0.6817   57.9456 O.3     1  ZINC000809503567   -0.3100
      3 C3        -10.1076   -0.0358   56.7628 C.ar    1  ZINC000809503567    0.1900
      4 C4         -9.2787    1.0720   56.6806 C.ar    1  ZINC000809503567   -0.2100
      5 C5         -9.1177    1.7288   55.4760 C.ar    1  ZINC000809503567   -0.0200
      6 C6         -9.7813    1.2879   54.3434 C.ar    1  ZINC000809503567   -0.1500
      7 C7         -9.5972    2.0138   53.0357 C.3     1  ZINC000809503567    0.1700
      8 N8         -8.5291    1.3708   52.2664 N.am    1  ZINC000809503567   -0.7000
      9 C9         -7.3801    2.0327   52.0252 C.2     1  ZINC000809503567    0.5100
     10 O10        -7.2309    3.1617   52.4441 O.2     1  ZINC000809503567   -0.4900
     11 C11        -6.2897    1.3760   51.2420 C.2     1  ZINC000809503567    0.5100
     12 O12        -5.8994    0.2703   51.5545 O.2     1  ZINC000809503567   -0.5000
     13 N13        -5.7400    2.0118   50.1885 N.am    1  ZINC000809503567   -0.4600
     14 C14        -6.2124    3.3459   49.8100 C.3     1  ZINC000809503567    0.0800
     15 O15        -4.7058    1.3903   49.4474 O.3     1  ZINC000809503567   -0.1100
     16 C16        -3.3896    1.7300   49.8885 C.3     1  ZINC000809503567    0.0800
     17 C17        -2.3812    1.2499   48.8767 C.ar    1  ZINC000809503567   -0.0900
     18 C18        -1.7963    0.0057   49.0208 C.ar    1  ZINC000809503567   -0.1000
     19 C19        -0.8712   -0.4347   48.0927 C.ar    1  ZINC000809503567   -0.1300
     20 C20        -0.5315    0.3688   47.0204 C.ar    1  ZINC000809503567   -0.1100
     21 C21        -1.1171    1.6126   46.8759 C.ar    1  ZINC000809503567   -0.1300
     22 C22        -2.0454    2.0513   47.8016 C.ar    1  ZINC000809503567   -0.0800
     23 C23       -10.6094    0.1873   54.4068 C.ar    1  ZINC000809503567   -0.0100
     24 C24       -10.7765   -0.4894   55.6172 C.ar    1  ZINC000809503567   -0.0600
     25 C25       -11.6351   -1.6332   55.6901 C.1     1  ZINC000809503567    0.2600
     26 N26       -12.3162   -2.5405   55.7480 N.1     1  ZINC000809503567   -0.4100
     27 H27       -11.8575    0.3838   58.7219 H       1  ZINC000809503567    0.0600
     28 H28       -10.9278   -0.5733   59.9000 H       1  ZINC000809503567    0.1100
     29 H29       -10.2439    0.9305   59.2374 H       1  ZINC000809503567    0.0600
     30 H30        -8.7583    1.4226   57.5595 H       1  ZINC000809503567    0.1400
     31 H31        -8.4707    2.5916   55.4172 H       1  ZINC000809503567    0.1400
     32 H32       -10.5264    1.9788   52.4667 H       1  ZINC000809503567    0.0900
     33 H33        -9.3297    3.0522   53.2311 H       1  ZINC000809503567    0.0900
     34 H34        -8.6488    0.4687   51.9305 H       1  ZINC000809503567    0.4100
     35 H35        -5.6295    4.1010   50.3373 H       1  ZINC000809503567    0.0800
     36 H36        -6.0947    3.4816   48.7349 H       1  ZINC000809503567    0.0800
     37 H37        -7.2645    3.4479   50.0760 H       1  ZINC000809503567    0.0900
     38 H38        -3.3103    2.8119   49.9953 H       1  ZINC000809503567    0.0700
     39 H39        -3.1945    1.2547   50.8497 H       1  ZINC000809503567    0.0600
     40 H40        -2.0616   -0.6220   49.8584 H       1  ZINC000809503567    0.1200
     41 H41        -0.4137   -1.4064   48.2055 H       1  ZINC000809503567    0.1200
     42 H42         0.1917    0.0251   46.2958 H       1  ZINC000809503567    0.1200
     43 H43        -0.8514    2.2406   46.0383 H       1  ZINC000809503567    0.1200
     44 H44        -2.5030    3.0231   47.6887 H       1  ZINC000809503567    0.1300
     45 H45       -11.1250   -0.1532   53.5211 H       1  ZINC000809503567    0.1400
@<TRIPOS>BOND
     1     1     2    1
     2     1    27    1
     3     1    28    1
     4     1    29    1
     5     2     3    1
     6     3    24   ar
     7     3     4   ar
     8     4     5   ar
     9     4    30    1
    10     5     6   ar
    11     5    31    1
    12     6     7    1
    13     6    23   ar
    14     7     8    1
    15     7    32    1
    16     7    33    1
    17     8     9   am
    18     8    34    1
    19     9    10    2
    20     9    11    1
    21    11    12    2
    22    11    13   am
    23    13    14    1
    24    13    15    1
    25    14    35    1
    26    14    36    1
    27    14    37    1
    28    15    16    1
    29    16    17    1
    30    16    38    1
    31    16    39    1
    32    17    22   ar
    33    17    18   ar
    34    18    19   ar
    35    18    40    1
    36    19    20   ar
    37    19    41    1
    38    20    21   ar
    39    20    42    1
    40    21    22   ar
    41    21    43    1
    42    22    44    1
    43    23    24   ar
    44    23    45    1
    45    24    25    1
    46    25    26    3
@<TRIPOS>SUBSTRUCTURE
     1 ZINC000809503567        1 TEMP              0 ****  ****    0 ROOT


##########                                Name:    ZINC001271977984
##########                DOCK_Rotatable_Bonds:                   7
##########                         Heavy_Atoms:                  24
##########                    Molecular_Weight:             328.371
##########                DOCK_Rotatable_Bonds:                   7
##########                       Formal_Charge:           0.0200001
##########                     HBond_Acceptors:                   7
##########                        HBond_Donors:                   0
##########                         Heavy_Atoms:                  24
##########                          Grid_Score:          -29.711723
##########                     Grid_vdw_energy:          -28.932585
##########                      Grid_es_energy:           -0.779140
##########           Internal_energy_repulsive:           24.438652

@<TRIPOS>MOLECULE
ZINC001271977984
 44 46 1 0 0
SMALL
USER_CHARGES


@<TRIPOS>ATOM
      1 C1         -5.4493    1.4865   50.9305 C.3     1  ZINC001271977984   -0.1800
      2 C2         -4.1100    2.2159   51.0535 C.3     1  ZINC001271977984    0.1700
      3 H3         -3.6326    1.9426   51.9945 H       1  ZINC001271977984    0.1100
      4 C4         -3.2171    1.8239   49.9047 C.2     1  ZINC001271977984    0.2700
      5 N5         -3.1661    2.4380   48.7610 N.2     1  ZINC001271977984   -0.4700
      6 C6         -2.2537    1.8133   47.9682 C.ar    1  ZINC001271977984    0.0200
      7 C7         -1.7943    2.0298   46.6684 C.ar    1  ZINC001271977984   -0.0600
      8 C8         -0.8363    1.1966   46.1349 C.ar    1  ZINC001271977984   -0.1200
      9 C9         -0.3260    0.1450   46.8812 C.ar    1  ZINC001271977984   -0.0900
     10 C10        -0.7712   -0.0812   48.1671 C.ar    1  ZINC001271977984   -0.0900
     11 C11        -1.7347    0.7479   48.7201 C.ar    1  ZINC001271977984    0.0100
     12 O12        -2.3565    0.7939   49.9188 O.3     1  ZINC001271977984   -0.2100
     13 N13        -4.3381    3.6669   51.0236 N.3     1  ZINC001271977984   -0.5300
     14 C14        -5.5492    3.9936   50.2592 C.3     1  ZINC001271977984    0.0000
     15 C15        -4.4097    4.2168   52.3838 C.3     1  ZINC001271977984    0.0400
     16 C16        -3.2891    5.2398   52.5799 C.3     1  ZINC001271977984    0.1200
     17 N17        -2.1614    4.6034   53.2653 N.am    1  ZINC001271977984   -0.6000
     18 C18        -1.1450    3.8855   52.4920 C.3     1  ZINC001271977984    0.0800
     19 C19        -2.0589    4.6784   54.6070 C.2     1  ZINC001271977984    0.6000
     20 O20        -2.9027    5.2743   55.2488 O.2     1  ZINC001271977984   -0.5300
     21 C21        -0.9242    4.0381   55.2966 C.2     1  ZINC001271977984   -0.0800
     22 C22         0.3916    4.1565   54.9697 C.2     1  ZINC001271977984    0.0200
     23 O23         1.0820    3.4151   55.8508 O.3     1  ZINC001271977984   -0.2000
     24 C24         0.2102    2.8536   56.7002 C.2     1  ZINC001271977984    0.1800
     25 N25        -0.9947    3.2221   56.3832 N.2     1  ZINC001271977984   -0.4600
     26 H26        -6.0952    1.7700   51.7614 H       1  ZINC001271977984    0.0800
     27 H27        -5.9267    1.7598   49.9895 H       1  ZINC001271977984    0.0800
     28 H28        -5.2801    0.4099   50.9528 H       1  ZINC001271977984    0.0700
     29 H29        -2.1887    2.8473   46.0831 H       1  ZINC001271977984    0.1400
     30 H30        -0.4803    1.3631   45.1290 H       1  ZINC001271977984    0.1400
     31 H31         0.4251   -0.5019   46.4522 H       1  ZINC001271977984    0.1400
     32 H32        -0.3692   -0.9022   48.7423 H       1  ZINC001271977984    0.1400
     33 H33        -6.4116    3.5137   50.7221 H       1  ZINC001271977984    0.0300
     34 H34        -5.6944    5.0738   50.2529 H       1  ZINC001271977984    0.0700
     35 H35        -5.4404    3.6356   49.2353 H       1  ZINC001271977984    0.1100
     36 H36        -5.3747    4.7025   52.5290 H       1  ZINC001271977984    0.0500
     37 H37        -4.2963    3.4102   53.1083 H       1  ZINC001271977984    0.0800
     38 H38        -2.9617    5.6106   51.6087 H       1  ZINC001271977984    0.0900
     39 H39        -3.6572    6.0712   53.1811 H       1  ZINC001271977984    0.0900
     40 H40        -0.3054    4.5506   52.2898 H       1  ZINC001271977984    0.0600
     41 H41        -0.7970    3.0236   53.0613 H       1  ZINC001271977984    0.0900
     42 H42        -1.5765    3.5482   51.5496 H       1  ZINC001271977984    0.0700
     43 H43         0.8022    4.7361   54.1563 H       1  ZINC001271977984    0.2300
     44 H44         0.4689    2.2007   57.5208 H       1  ZINC001271977984    0.2600
@<TRIPOS>BOND
     1     1     2    1
     2     1    26    1
     3     1    27    1
     4     1    28    1
     5     2     3    1
     6     2     4    1
     7     2    13    1
     8     4    12    1
     9     4     5    2
    10     5     6    1
    11     6    11   ar
    12     6     7   ar
    13     7     8   ar
    14     7    29    1
    15     8     9   ar
    16     8    30    1
    17     9    10   ar
    18     9    31    1
    19    10    11   ar
    20    10    32    1
    21    11    12    1
    22    13    14    1
    23    13    15    1
    24    14    33    1
    25    14    34    1
    26    14    35    1
    27    15    16    1
    28    15    36    1
    29    15    37    1
    30    16    17    1
    31    16    38    1
    32    16    39    1
    33    17    18    1
    34    17    19   am
    35    18    40    1
    36    18    41    1
    37    18    42    1
    38    19    20    2
    39    19    21    1
    40    21    25    1
    41    21    22    2
    42    22    23    1
    43    22    43    1
    44    23    24    1
    45    24    25    2
    46    24    44    1
@<TRIPOS>SUBSTRUCTURE
     1 ZINC001271977984        1 TEMP              0 ****  ****    0 ROOT


##########                                Name:    ZINC000787750060
##########                DOCK_Rotatable_Bonds:                   6
##########                         Heavy_Atoms:                  24
##########                    Molecular_Weight:             347.438
##########                DOCK_Rotatable_Bonds:                   6
##########                       Formal_Charge:           0.0200003
##########                     HBond_Acceptors:                   7
##########                        HBond_Donors:                   2
##########                         Heavy_Atoms:                  24
##########                          Grid_Score:          -29.694166
##########                     Grid_vdw_energy:          -28.050783
##########                      Grid_es_energy:           -1.643384
##########           Internal_energy_repulsive:            7.490531

@<TRIPOS>MOLECULE
ZINC000787750060
 45 47 1 0 0
SMALL
USER_CHARGES


@<TRIPOS>ATOM
      1 C1          2.3819    1.6261   51.1948 C.3     1  ZINC000787750060   -0.1200
      2 C2          0.9649    1.8591   50.7374 C.ar    1  ZINC000787750060   -0.0400
      3 C3          0.4167    1.0507   49.7554 C.ar    1  ZINC000787750060   -0.1300
      4 C4         -0.8780    1.2548   49.3294 C.ar    1  ZINC000787750060   -0.0700
      5 C5         -1.6420    2.2809   49.8900 C.ar    1  ZINC000787750060   -0.1700
      6 C6         -3.0289    2.5046   49.4392 C.2     1  ZINC000787750060    0.5600
      7 O7         -3.2714    2.6216   48.2535 O.2     1  ZINC000787750060   -0.5200
      8 N8         -4.0271    2.5793   50.3417 N.am    1  ZINC000787750060   -0.7300
      9 C9         -5.4040    2.8032   49.8941 C.3     1  ZINC000787750060    0.2100
     10 C10        -6.3385    1.9246   50.6852 C.2     1  ZINC000787750060   -0.2800
     11 C11        -6.1839    0.6193   50.9092 C.2     1  ZINC000787750060    0.0900
     12 N12        -7.1416    0.0690   51.6342 N.2     1  ZINC000787750060   -0.5200
     13 C13        -8.0973    0.8499   52.0325 C.2     1  ZINC000787750060    0.2300
     14 N14        -9.1811    0.4510   52.7991 N.3     1  ZINC000787750060   -0.4500
     15 C15       -10.3183    0.0734   51.9474 C.3     1  ZINC000787750060    0.0200
     16 C16       -11.4696   -0.4159   52.8301 C.3     1  ZINC000787750060    0.0600
     17 O17       -11.8123    0.6073   53.7687 O.3     1  ZINC000787750060   -0.3800
     18 C18       -10.7280    0.9989   54.6149 C.3     1  ZINC000787750060    0.0600
     19 C19        -9.5692    1.5026   53.7502 C.3     1  ZINC000787750060    0.0300
     20 S20        -7.8213    2.4446   51.4815 S.3     1  ZINC000787750060    0.1700
     21 C21        -1.0836    3.0966   50.8840 C.ar    1  ZINC000787750060    0.1700
     22 O22        -1.8160    4.0964   51.4358 O.3     1  ZINC000787750060   -0.4700
     23 C23         0.2189    2.8739   51.3038 C.ar    1  ZINC000787750060   -0.1200
     24 C24         0.8250    3.7474   52.3719 C.3     1  ZINC000787750060   -0.1200
     25 H25         2.3842    0.9190   52.0243 H       1  ZINC000787750060    0.0800
     26 H26         2.9679    1.2204   50.3700 H       1  ZINC000787750060    0.0700
     27 H27         2.8184    2.5701   51.5208 H       1  ZINC000787750060    0.0800
     28 H28         1.0066    0.2570   49.3213 H       1  ZINC000787750060    0.1300
     29 H29        -1.3012    0.6224   48.5630 H       1  ZINC000787750060    0.1300
     30 H30        -3.8338    2.4848   51.2875 H       1  ZINC000787750060    0.4000
     31 H31        -5.6707    3.8488   50.0483 H       1  ZINC000787750060    0.0900
     32 H32        -5.4859    2.5598   48.8349 H       1  ZINC000787750060    0.0800
     33 H33        -5.3438    0.0573   50.5287 H       1  ZINC000787750060    0.1800
     34 H34       -10.6444    0.9391   51.3708 H       1  ZINC000787750060    0.0600
     35 H35       -10.0159   -0.7239   51.2687 H       1  ZINC000787750060    0.1000
     36 H36       -12.3348   -0.6430   52.2071 H       1  ZINC000787750060    0.1100
     37 H37       -11.1611   -1.3132   53.3664 H       1  ZINC000787750060    0.0700
     38 H38       -11.0566    1.7953   55.2827 H       1  ZINC000787750060    0.1100
     39 H39       -10.3977    0.1428   55.2031 H       1  ZINC000787750060    0.0600
     40 H40        -8.7197    1.7485   54.3876 H       1  ZINC000787750060    0.1000
     41 H41        -9.8832    2.3911   53.2024 H       1  ZINC000787750060    0.0700
     42 H42        -1.5854    4.2919   52.3544 H       1  ZINC000787750060    0.4000
     43 H43         0.6280    3.3126   53.3519 H       1  ZINC000787750060    0.0700
     44 H44         1.9014    3.8183   52.2157 H       1  ZINC000787750060    0.0700
     45 H45         0.3841    4.7428   52.3207 H       1  ZINC000787750060    0.0800
@<TRIPOS>BOND
     1     1     2    1
     2     1    25    1
     3     1    26    1
     4     1    27    1
     5     2    23   ar
     6     2     3   ar
     7     3     4   ar
     8     3    28    1
     9     4     5   ar
    10     4    29    1
    11     5     6    1
    12     5    21   ar
    13     6     7    2
    14     6     8   am
    15     8     9    1
    16     8    30    1
    17     9    10    1
    18     9    31    1
    19     9    32    1
    20    10    20    1
    21    10    11    2
    22    11    12    1
    23    11    33    1
    24    12    13    2
    25    13    14    1
    26    13    20    1
    27    14    19    1
    28    14    15    1
    29    15    16    1
    30    15    34    1
    31    15    35    1
    32    16    17    1
    33    16    36    1
    34    16    37    1
    35    17    18    1
    36    18    19    1
    37    18    38    1
    38    18    39    1
    39    19    40    1
    40    19    41    1
    41    21    22    1
    42    21    23   ar
    43    22    42    1
    44    23    24    1
    45    24    43    1
    46    24    44    1
    47    24    45    1
@<TRIPOS>SUBSTRUCTURE
     1 ZINC000787750060        1 TEMP              0 ****  ****    0 ROOT


##########                                Name:    ZINC000583220082
##########                DOCK_Rotatable_Bonds:                   9
##########                         Heavy_Atoms:                  29
##########                    Molecular_Weight:             417.492
##########                DOCK_Rotatable_Bonds:                   9
##########                       Formal_Charge:          -0.0400006
##########                     HBond_Acceptors:                  11
##########                        HBond_Donors:                   3
##########                         Heavy_Atoms:                  29
##########                          Grid_Score:          -29.680809
##########                     Grid_vdw_energy:          -27.803669
##########                      Grid_es_energy:           -1.877141
##########           Internal_energy_repulsive:           19.321062

@<TRIPOS>MOLECULE
ZINC000583220082
 52 54 1 0 0
SMALL
USER_CHARGES


@<TRIPOS>ATOM
      1 C1         -8.5546    4.6678   65.6141 C.3     1  ZINC000583220082    0.0800
      2 N2         -8.1154    3.4189   64.9866 N.am    1  ZINC000583220082   -0.6300
      3 C3         -7.1640    3.4536   63.8731 C.3     1  ZINC000583220082    0.0800
      4 C4         -8.5866    2.2380   65.4338 C.2     1  ZINC000583220082    0.5100
      5 O5         -9.3754    2.2094   66.3547 O.2     1  ZINC000583220082   -0.5300
      6 C6         -8.1335    0.9533   64.7896 C.3     1  ZINC000583220082   -0.1000
      7 C7         -9.0610    0.6065   63.6536 C.ar    1  ZINC000583220082   -0.0800
      8 C8        -10.3822    1.0132   63.6931 C.ar    1  ZINC000583220082   -0.0800
      9 C9        -11.2350    0.6972   62.6539 C.ar    1  ZINC000583220082   -0.1400
     10 C10       -10.7640   -0.0297   61.5676 C.ar    1  ZINC000583220082    0.1400
     11 N11       -11.6240   -0.3509   60.5142 N.am    1  ZINC000583220082   -0.6400
     12 C12       -12.0952   -1.6073   60.3880 C.2     1  ZINC000583220082    0.5100
     13 O13       -11.7727   -2.4597   61.1896 O.2     1  ZINC000583220082   -0.4900
     14 C14       -13.0144   -1.9505   59.2619 C.2     1  ZINC000583220082    0.5100
     15 O15       -14.2024   -2.0873   59.4685 O.2     1  ZINC000583220082   -0.5100
     16 N16       -12.5245   -2.1083   58.0163 N.am    1  ZINC000583220082   -0.5800
     17 C17       -13.4129   -2.4402   56.8922 C.3     1  ZINC000583220082    0.0600
     18 C18       -13.1493   -1.4484   55.7542 C.3     1  ZINC000583220082    0.0300
     19 N19       -11.7159   -1.4458   55.4332 N.3     1  ZINC000583220082   -0.4300
     20 C20       -11.4617   -0.6861   54.3063 C.2     1  ZINC000583220082    0.2900
     21 N21       -11.8739   -0.9149   53.0773 N.2     1  ZINC000583220082   -0.5700
     22 C22       -11.5060   -0.0476   52.1570 C.2     1  ZINC000583220082    0.5400
     23 N23       -11.8911   -0.2006   50.8258 N.pl3   1  ZINC000583220082   -0.8200
     24 N24       -10.7675    0.9614   52.5356 N.2     1  ZINC000583220082   -0.5500
     25 S25       -10.5436    0.7683   54.2089 S.3     1  ZINC000583220082    0.2000
     26 C26       -10.9153   -0.9802   56.5735 C.3     1  ZINC000583220082    0.0500
     27 C27       -11.0881   -1.9469   57.7440 C.3     1  ZINC000583220082    0.1100
     28 C28        -9.4361   -0.4364   61.5310 C.ar    1  ZINC000583220082   -0.1200
     29 C29        -8.5877   -0.1128   62.5715 C.ar    1  ZINC000583220082   -0.0800
     30 H30        -9.4445    5.0372   65.1043 H       1  ZINC000583220082    0.0500
     31 H31        -8.7865    4.4853   66.6634 H       1  ZINC000583220082    0.0800
     32 H32        -7.7597    5.4100   65.5414 H       1  ZINC000583220082    0.0700
     33 H33        -6.8985    4.4879   63.6542 H       1  ZINC000583220082    0.0800
     34 H34        -6.2666    2.8978   64.1446 H       1  ZINC000583220082    0.0600
     35 H35        -7.6191    3.0011   62.9921 H       1  ZINC000583220082    0.0600
     36 H36        -7.1204    1.0763   64.4068 H       1  ZINC000583220082    0.1000
     37 H37        -8.1479    0.1517   65.5281 H       1  ZINC000583220082    0.1000
     38 H38       -10.7476    1.5784   64.5378 H       1  ZINC000583220082    0.1300
     39 H39       -12.2667    1.0145   62.6856 H       1  ZINC000583220082    0.1300
     40 H40       -11.8818    0.3304   59.8736 H       1  ZINC000583220082    0.4200
     41 H41       -13.2065   -3.4541   56.5493 H       1  ZINC000583220082    0.0900
     42 H42       -14.4521   -2.3631   57.2117 H       1  ZINC000583220082    0.1700
     43 H43       -13.7187   -1.7456   54.8735 H       1  ZINC000583220082    0.1100
     44 H44       -13.4543   -0.4490   56.0646 H       1  ZINC000583220082    0.0700
     45 H45       -11.6691    0.4835   50.1750 H       1  ZINC000583220082    0.4200
     46 H46       -12.3810   -0.9913   50.5505 H       1  ZINC000583220082    0.4200
     47 H47        -9.8644   -0.9381   56.2871 H       1  ZINC000583220082    0.1100
     48 H48       -11.2514    0.0125   56.8727 H       1  ZINC000583220082    0.0600
     49 H49       -10.5893   -1.5463   58.6265 H       1  ZINC000583220082    0.1100
     50 H50       -10.6596   -2.9152   57.4855 H       1  ZINC000583220082    0.0900
     51 H51        -9.0667   -1.0016   60.6881 H       1  ZINC000583220082    0.1400
     52 H52        -7.5553   -0.4285   62.5437 H       1  ZINC000583220082    0.1300
@<TRIPOS>BOND
     1     1     2    1
     2     1    30    1
     3     1    31    1
     4     1    32    1
     5     2     3    1
     6     2     4   am
     7     3    33    1
     8     3    34    1
     9     3    35    1
    10     4     5    2
    11     4     6    1
    12     6     7    1
    13     6    36    1
    14     6    37    1
    15     7    29   ar
    16     7     8   ar
    17     8     9   ar
    18     8    38    1
    19     9    10   ar
    20     9    39    1
    21    10    11    1
    22    10    28   ar
    23    11    12   am
    24    11    40    1
    25    12    13    2
    26    12    14    1
    27    14    15    2
    28    14    16   am
    29    16    27    1
    30    16    17    1
    31    17    18    1
    32    17    41    1
    33    17    42    1
    34    18    19    1
    35    18    43    1
    36    18    44    1
    37    19    20    1
    38    19    26    1
    39    20    25    1
    40    20    21    2
    41    21    22    1
    42    22    23    1
    43    22    24    2
    44    23    45    1
    45    23    46    1
    46    24    25    1
    47    26    27    1
    48    26    47    1
    49    26    48    1
    50    27    49    1
    51    27    50    1
    52    28    29   ar
    53    28    51    1
    54    29    52    1
@<TRIPOS>SUBSTRUCTURE
     1 ZINC000583220082        1 TEMP              0 ****  ****    0 ROOT


##########                                Name:    ZINC000573650873
##########                DOCK_Rotatable_Bonds:                  10
##########                         Heavy_Atoms:                  28
##########                    Molecular_Weight:             418.843
##########                DOCK_Rotatable_Bonds:                  10
##########                       Formal_Charge:          -0.0500001
##########                     HBond_Acceptors:                   9
##########                        HBond_Donors:                   1
##########                         Heavy_Atoms:                  28
##########                          Grid_Score:          -29.678102
##########                     Grid_vdw_energy:          -29.528461
##########                      Grid_es_energy:           -0.149642
##########           Internal_energy_repulsive:           14.855643

@<TRIPOS>MOLECULE
ZINC000573650873
 50 51 1 0 0
SMALL
USER_CHARGES


@<TRIPOS>ATOM
      1 C1        -11.3468    1.4905   53.5571 C.3     1  ZINC000573650873   -0.1400
      2 C2        -10.9631    0.1513   52.9243 C.3     1  ZINC000573650873    0.0100
      3 C3        -11.0498   -0.9543   53.9783 C.3     1  ZINC000573650873   -0.1400
      4 C4        -11.9229   -0.1634   51.7751 C.3     1  ZINC000573650873   -0.1500
      5 C5         -9.5545    0.2312   52.3948 C.2     1  ZINC000573650873   -0.0100
      6 C6         -8.9100    1.3456   51.9776 C.2     1  ZINC000573650873   -0.1800
      7 C7         -7.6274    0.8722   51.5840 C.2     1  ZINC000573650873   -0.0300
      8 C8         -6.5068    1.6793   51.0429 C.2     1  ZINC000573650873    0.6000
      9 O9         -6.2435    1.6354   49.8576 O.2     1  ZINC000573650873   -0.5100
     10 N10        -5.7807    2.4615   51.8660 N.am    1  ZINC000573650873   -0.5900
     11 C11        -4.6739    3.2587   51.3315 C.3     1  ZINC000573650873    0.1200
     12 C12        -3.3483    2.5552   51.6293 C.3     1  ZINC000573650873   -0.1000
     13 C13        -2.5552    2.4176   50.3554 C.ar    1  ZINC000573650873   -0.0800
     14 C14        -1.7440    3.4536   49.9312 C.ar    1  ZINC000573650873   -0.1000
     15 C15        -1.0164    3.3281   48.7628 C.ar    1  ZINC000573650873   -0.1100
     16 C16        -1.0999    2.1654   48.0178 C.ar    1  ZINC000573650873   -0.0400
     17 Cl17       -0.1858    2.0067   46.5505 Cl      1  ZINC000573650873   -0.0700
     18 C18        -1.9119    1.1288   48.4427 C.ar    1  ZINC000573650873   -0.1100
     19 C19        -2.6347    1.2535   49.6143 C.ar    1  ZINC000573650873   -0.1000
     20 C20        -6.0981    2.5144   53.2952 C.3     1  ZINC000573650873    0.0700
     21 C21        -6.5583    3.9264   53.6635 C.3     1  ZINC000573650873    0.0600
     22 H22        -5.7506    4.6330   53.4728 H       1  ZINC000573650873    0.1400
     23 O23        -7.6956    4.2781   52.8730 O.3     1  ZINC000573650873   -0.5200
     24 C24        -6.9343    3.9697   55.1460 C.3     1  ZINC000573650873    0.4300
     25 F25        -5.8174    3.6384   55.9204 F       1  ZINC000573650873   -0.1700
     26 F26        -7.3678    5.2572   55.4796 F       1  ZINC000573650873   -0.1700
     27 F27        -7.9619    3.0530   55.3934 F       1  ZINC000573650873   -0.1800
     28 N28        -7.6357   -0.4203   51.7967 N.2     1  ZINC000573650873   -0.3400
     29 O29        -8.6946   -0.7867   52.2508 O.3     1  ZINC000573650873    0.1300
     30 H30       -10.6631    1.7146   54.3759 H       1  ZINC000573650873    0.0600
     31 H31       -11.2851    2.2781   52.8061 H       1  ZINC000573650873    0.0600
     32 H32       -12.3657    1.4326   53.9400 H       1  ZINC000573650873    0.0700
     33 H33       -12.0686   -1.0120   54.3613 H       1  ZINC000573650873    0.0700
     34 H34       -10.7764   -1.9083   53.5274 H       1  ZINC000573650873    0.0600
     35 H35       -10.3660   -0.7302   54.7971 H       1  ZINC000573650873    0.0600
     36 H36       -11.8611    0.6243   51.0241 H       1  ZINC000573650873    0.0600
     37 H37       -11.6495   -1.1173   51.3242 H       1  ZINC000573650873    0.0600
     38 H38       -12.9417   -0.2211   52.1581 H       1  ZINC000573650873    0.0700
     39 H39        -9.2829    2.3588   51.9496 H       1  ZINC000573650873    0.1800
     40 H40        -4.7927    3.3686   50.2535 H       1  ZINC000573650873    0.0900
     41 H41        -4.6760    4.2431   51.7995 H       1  ZINC000573650873    0.1000
     42 H42        -2.7792    3.1425   52.3500 H       1  ZINC000573650873    0.0800
     43 H43        -3.5467    1.5662   52.0425 H       1  ZINC000573650873    0.0800
     44 H44        -1.6792    4.3614   50.5128 H       1  ZINC000573650873    0.1300
     45 H45        -0.3830    4.1376   48.4314 H       1  ZINC000573650873    0.1300
     46 H46        -1.9778    0.2211   47.8614 H       1  ZINC000573650873    0.1300
     47 H47        -3.2684    0.4443   49.9462 H       1  ZINC000573650873    0.1300
     48 H48        -6.8939    1.8034   53.5172 H       1  ZINC000573650873    0.1000
     49 H49        -5.2107    2.2588   53.8742 H       1  ZINC000573650873    0.1200
     50 H50        -7.5202    4.3066   51.9224 H       1  ZINC000573650873    0.3900
@<TRIPOS>BOND
     1     1     2    1
     2     1    30    1
     3     1    31    1
     4     1    32    1
     5     2     3    1
     6     2     4    1
     7     2     5    1
     8     3    33    1
     9     3    34    1
    10     3    35    1
    11     4    36    1
    12     4    37    1
    13     4    38    1
    14     5    29    1
    15     5     6    2
    16     6     7    1
    17     6    39    1
    18     7     8    1
    19     7    28    2
    20     8     9    2
    21     8    10   am
    22    10    11    1
    23    10    20    1
    24    11    12    1
    25    11    40    1
    26    11    41    1
    27    12    13    1
    28    12    42    1
    29    12    43    1
    30    13    19   ar
    31    13    14   ar
    32    14    15   ar
    33    14    44    1
    34    15    16   ar
    35    15    45    1
    36    16    17    1
    37    16    18   ar
    38    18    19   ar
    39    18    46    1
    40    19    47    1
    41    20    21    1
    42    20    48    1
    43    20    49    1
    44    21    22    1
    45    21    23    1
    46    21    24    1
    47    23    50    1
    48    24    25    1
    49    24    26    1
    50    24    27    1
    51    28    29    1
@<TRIPOS>SUBSTRUCTURE
     1 ZINC000573650873        1 TEMP              0 ****  ****    0 ROOT


##########                                Name:    ZINC000859202493
##########                DOCK_Rotatable_Bonds:                  11
##########                         Heavy_Atoms:                  25
##########                    Molecular_Weight:             382.404
##########                DOCK_Rotatable_Bonds:                  11
##########                       Formal_Charge:          -0.0200009
##########                     HBond_Acceptors:                  10
##########                        HBond_Donors:                   3
##########                         Heavy_Atoms:                  25
##########                          Grid_Score:          -29.671047
##########                     Grid_vdw_energy:          -27.892342
##########                      Grid_es_energy:           -1.778705
##########           Internal_energy_repulsive:           17.847506

@<TRIPOS>MOLECULE
ZINC000859202493
 46 46 1 0 0
SMALL
USER_CHARGES


@<TRIPOS>ATOM
      1 C1          3.5977    1.6920   47.7912 C.3     1  ZINC000859202493   -0.1500
      2 C2          3.7039    1.3946   49.2882 C.3     1  ZINC000859202493   -0.1200
      3 C3          2.3013    1.3303   49.8962 C.3     1  ZINC000859202493   -0.1000
      4 H4          1.7136    2.1782   49.5444 H       1  ZINC000859202493    0.0700
      5 C5          2.4041    1.3789   51.4219 C.3     1  ZINC000859202493   -0.1600
      6 C6          1.6209    0.0272   49.4721 C.3     1  ZINC000859202493   -0.1200
      7 C7          0.2579    0.3418   48.8521 C.3     1  ZINC000859202493    0.1600
      8 H8         -0.4410    0.6289   49.6378 H       1  ZINC000859202493    0.1000
      9 C9         -0.2709   -0.8974   48.1272 C.3     1  ZINC000859202493    0.0500
     10 O10        -0.8686   -1.7847   49.0746 O.3     1  ZINC000859202493   -0.5700
     11 N11         0.3985    1.4435   47.8969 N.am    1  ZINC000859202493   -1.1000
     12 S12        -0.8826    2.4498   47.5992 S.o2    1  ZINC000859202493    2.6900
     13 O13        -0.3916    3.4871   46.7611 O.2     1  ZINC000859202493   -0.9500
     14 O14        -1.9750    1.6140   47.2426 O.2     1  ZINC000859202493   -0.9500
     15 C15        -1.3157    3.2093   49.1290 C.ar    1  ZINC000859202493   -0.6600
     16 C16        -0.6717    4.3640   49.5334 C.ar    1  ZINC000859202493   -0.0300
     17 C17        -1.0085    4.9629   50.7337 C.ar    1  ZINC000859202493   -0.1100
     18 C18        -1.9899    4.4091   51.5319 C.ar    1  ZINC000859202493   -0.0600
     19 C19        -2.6390    3.2495   51.1283 C.ar    1  ZINC000859202493    0.1200
     20 N20        -3.6342    2.6862   51.9346 N.am    1  ZINC000859202493   -0.6500
     21 C21        -4.9187    2.6973   51.5265 C.2     1  ZINC000859202493    0.4800
     22 O22        -5.2119    3.1955   50.4603 O.2     1  ZINC000859202493   -0.4500
     23 C23        -5.9904    2.0906   52.3950 C.3     1  ZINC000859202493    0.4600
     24 F24        -7.2407    2.5820   52.0044 F       1  ZINC000859202493   -0.1500
     25 F25        -5.9719    0.6988   52.2547 F       1  ZINC000859202493   -0.1600
     26 F26        -5.7537    2.4278   53.7319 F       1  ZINC000859202493   -0.1600
     27 C27        -2.3023    2.6536   49.9202 C.ar    1  ZINC000859202493   -0.0300
     28 H28         4.5969    1.7378   47.3581 H       1  ZINC000859202493    0.0500
     29 H29         3.0262    0.9022   47.3035 H       1  ZINC000859202493    0.0500
     30 H30         3.0943    2.6477   47.6454 H       1  ZINC000859202493    0.0600
     31 H31         4.2072    0.4388   49.4340 H       1  ZINC000859202493    0.0600
     32 H32         4.2754    2.1843   49.7759 H       1  ZINC000859202493    0.0600
     33 H33         1.4049    1.3330   51.8550 H       1  ZINC000859202493    0.0500
     34 H34         2.9918    0.5309   51.7736 H       1  ZINC000859202493    0.0600
     35 H35         2.8888    2.3072   51.7240 H       1  ZINC000859202493    0.0600
     36 H36         2.2436   -0.4861   48.7393 H       1  ZINC000859202493    0.0800
     37 H37         1.4845   -0.6121   50.3443 H       1  ZINC000859202493    0.0800
     38 H38        -1.0158   -0.5972   47.3904 H       1  ZINC000859202493    0.0600
     39 H39         0.5533   -1.4039   47.6249 H       1  ZINC000859202493    0.0600
     40 H40        -0.2784   -2.0477   49.7939 H       1  ZINC000859202493    0.3800
     41 H41         1.2419    1.5837   47.4388 H       1  ZINC000859202493    0.4200
     42 H42         0.0961    4.7990   48.9110 H       1  ZINC000859202493    0.1500
     43 H43        -0.5031    5.8644   51.0472 H       1  ZINC000859202493    0.1400
     44 H44        -2.2521    4.8771   52.4693 H       1  ZINC000859202493    0.1400
     45 H45        -3.3997    2.2876   52.7873 H       1  ZINC000859202493    0.4200
     46 H46        -2.8052    1.7518   49.6035 H       1  ZINC000859202493    0.1500
@<TRIPOS>BOND
     1     1     2    1
     2     1    28    1
     3     1    29    1
     4     1    30    1
     5     2     3    1
     6     2    31    1
     7     2    32    1
     8     3     4    1
     9     3     5    1
    10     3     6    1
    11     5    33    1
    12     5    34    1
    13     5    35    1
    14     6     7    1
    15     6    36    1
    16     6    37    1
    17     7     8    1
    18     7     9    1
    19     7    11    1
    20     9    10    1
    21     9    38    1
    22     9    39    1
    23    10    40    1
    24    11    12   am
    25    11    41    1
    26    12    13    2
    27    12    14    2
    28    12    15    1
    29    15    27   ar
    30    15    16   ar
    31    16    17   ar
    32    16    42    1
    33    17    18   ar
    34    17    43    1
    35    18    19   ar
    36    18    44    1
    37    19    20    1
    38    19    27   ar
    39    20    21   am
    40    20    45    1
    41    21    22    2
    42    21    23    1
    43    23    24    1
    44    23    25    1
    45    23    26    1
    46    27    46    1
@<TRIPOS>SUBSTRUCTURE
     1 ZINC000859202493        1 TEMP              0 ****  ****    0 ROOT


##########                                Name:    ZINC000504860563
##########                DOCK_Rotatable_Bonds:                   6
##########                         Heavy_Atoms:                  25
##########                    Molecular_Weight:             370.786
##########                DOCK_Rotatable_Bonds:                   6
##########                       Formal_Charge:                0.01
##########                     HBond_Acceptors:                   9
##########                        HBond_Donors:                   0
##########                         Heavy_Atoms:                  25
##########                          Grid_Score:          -29.667339
##########                     Grid_vdw_energy:          -27.393160
##########                      Grid_es_energy:           -2.274179
##########           Internal_energy_repulsive:           14.676623

@<TRIPOS>MOLECULE
ZINC000504860563
 42 44 1 0 0
SMALL
USER_CHARGES


@<TRIPOS>ATOM
      1 O1         -0.6572    3.7344   49.7318 O.2     1  ZINC000504860563   -0.5100
      2 C2         -1.4274    2.8581   49.3905 C.2     1  ZINC000504860563    0.5700
      3 C3         -1.2371    2.1696   48.0961 C.ar    1  ZINC000504860563    0.0500
      4 N4         -1.4710    2.8204   46.9620 N.ar    1  ZINC000504860563   -0.4100
      5 C5         -1.3136    2.2453   45.7910 C.ar    1  ZINC000504860563    0.0600
      6 C6         -0.8941    0.9268   45.6915 C.ar    1  ZINC000504860563   -0.1000
      7 C7         -0.6374    0.2060   46.8440 C.ar    1  ZINC000504860563   -0.1700
      8 C8         -0.8061    0.8386   48.0736 C.ar    1  ZINC000504860563    0.1400
      9 O9         -0.5661    0.1722   49.2305 O.3     1  ZINC000504860563   -0.2600
     10 C10         0.6905   -0.4987   49.3439 C.3     1  ZINC000504860563   -0.0100
     11 C11         1.7897    0.5237   49.6394 C.3     1  ZINC000504860563    0.2800
     12 F12         2.0947    1.2312   48.4716 F       1  ZINC000504860563   -0.1900
     13 F13         1.3456    1.4151   50.6220 F       1  ZINC000504860563   -0.1900
     14 N14        -2.4516    2.5102   50.1946 N.am    1  ZINC000504860563   -0.6000
     15 C15        -2.6573    3.1893   51.4812 C.3     1  ZINC000504860563    0.0800
     16 C16        -4.0957    3.7131   51.5378 C.3     1  ZINC000504860563   -0.1500
     17 C17        -5.0654    2.5588   51.2742 C.3     1  ZINC000504860563    0.1600
     18 N18        -6.4431    3.0493   51.3603 N.pl3   1  ZINC000504860563   -0.3600
     19 C19        -7.5493    2.2891   51.5085 C.2     1  ZINC000504860563    0.0700
     20 C20        -8.6181    3.1191   51.5453 C.2     1  ZINC000504860563   -0.1900
     21 Cl21      -10.2774    2.6409   51.7231 Cl      1  ZINC000504860563   -0.0400
     22 C22        -8.1487    4.4310   51.4152 C.2     1  ZINC000504860563    0.0600
     23 N23        -6.8452    4.3903   51.3095 N.2     1  ZINC000504860563   -0.2800
     24 C24        -4.8138    1.9879   49.8767 C.3     1  ZINC000504860563   -0.1400
     25 C25        -3.3871    1.4488   49.7985 C.3     1  ZINC000504860563    0.1200
     26 H26        -1.5145    2.8082   44.8914 H       1  ZINC000504860563    0.1700
     27 H27        -0.7694    0.4668   44.7223 H       1  ZINC000504860563    0.1500
     28 H28        -0.3098   -0.8218   46.7916 H       1  ZINC000504860563    0.1500
     29 H29         0.6426   -1.2253   50.1551 H       1  ZINC000504860563    0.1000
     30 H30         0.9139   -1.0123   48.4088 H       1  ZINC000504860563    0.1000
     31 H31         2.6811    0.0065   49.9942 H       1  ZINC000504860563    0.1300
     32 H32        -2.4924    2.4850   52.2965 H       1  ZINC000504860563    0.0700
     33 H33        -1.9610    4.0233   51.5696 H       1  ZINC000504860563    0.1600
     34 H34        -4.2910    4.1342   52.5240 H       1  ZINC000504860563    0.0900
     35 H35        -4.2326    4.4835   50.7790 H       1  ZINC000504860563    0.0700
     36 H36        -4.9109    1.7776   52.0186 H       1  ZINC000504860563    0.1100
     37 H37        -7.5766    1.2121   51.5836 H       1  ZINC000504860563    0.1800
     38 H38        -8.7572    5.3233   51.4070 H       1  ZINC000504860563    0.1900
     39 H39        -5.5202    1.1813   49.6807 H       1  ZINC000504860563    0.0900
     40 H40        -4.9438    2.7746   49.1336 H       1  ZINC000504860563    0.0800
     41 H41        -3.1716    1.1321   48.7781 H       1  ZINC000504860563    0.1000
     42 H42        -3.2786    0.6024   50.4767 H       1  ZINC000504860563    0.0800
@<TRIPOS>BOND
     1     1     2    2
     2     2     3    1
     3     2    14   am
     4     3     8   ar
     5     3     4   ar
     6     4     5   ar
     7     5     6   ar
     8     5    26    1
     9     6     7   ar
    10     6    27    1
    11     7     8   ar
    12     7    28    1
    13     8     9    1
    14     9    10    1
    15    10    11    1
    16    10    29    1
    17    10    30    1
    18    11    12    1
    19    11    13    1
    20    11    31    1
    21    14    25    1
    22    14    15    1
    23    15    16    1
    24    15    32    1
    25    15    33    1
    26    16    17    1
    27    16    34    1
    28    16    35    1
    29    17    18    1
    30    17    24    1
    31    17    36    1
    32    18    23    1
    33    18    19    1
    34    19    20    2
    35    19    37    1
    36    20    21    1
    37    20    22    1
    38    22    23    2
    39    22    38    1
    40    24    25    1
    41    24    39    1
    42    24    40    1
    43    25    41    1
    44    25    42    1
@<TRIPOS>SUBSTRUCTURE
     1 ZINC000504860563        1 TEMP              0 ****  ****    0 ROOT


##########                                Name:    ZINC000938043669
##########                DOCK_Rotatable_Bonds:                   7
##########                         Heavy_Atoms:                  27
##########                    Molecular_Weight:             372.439
##########                DOCK_Rotatable_Bonds:                   7
##########                       Formal_Charge:           0.0499999
##########                     HBond_Acceptors:                   6
##########                        HBond_Donors:                   1
##########                         Heavy_Atoms:                  27
##########                          Grid_Score:          -29.665154
##########                     Grid_vdw_energy:          -28.003132
##########                      Grid_es_energy:           -1.662022
##########           Internal_energy_repulsive:           41.256538

@<TRIPOS>MOLECULE
ZINC000938043669
 52 55 1 0 0
SMALL
USER_CHARGES


@<TRIPOS>ATOM
      1 O1         -6.1794    4.3607   53.6609 O.2     1  ZINC000938043669   -0.5000
      2 C2         -5.1115    4.0263   53.1934 C.2     1  ZINC000938043669    0.5300
      3 C3         -3.8312    4.5653   53.7778 C.3     1  ZINC000938043669    0.0500
      4 O4         -4.0389    4.9016   55.1510 O.3     1  ZINC000938043669   -0.2800
      5 C5         -2.9685    5.3827   55.8374 C.ar    1  ZINC000938043669    0.0900
      6 C6         -3.0975    5.7246   57.1745 C.ar    1  ZINC000938043669   -0.1800
      7 C7         -2.0079    6.2129   57.8707 C.ar    1  ZINC000938043669   -0.0900
      8 C8         -0.7893    6.3611   57.2354 C.ar    1  ZINC000938043669   -0.1300
      9 C9         -0.6562    6.0217   55.9013 C.ar    1  ZINC000938043669   -0.1100
     10 C10        -1.7415    5.5272   55.2014 C.ar    1  ZINC000938043669    0.0800
     11 F11        -1.6119    5.1954   53.8982 F       1  ZINC000938043669   -0.1300
     12 N12        -5.0693    3.1683   52.1549 N.am    1  ZINC000938043669   -0.6200
     13 C13        -6.2359    2.5677   51.4917 C.3     1  ZINC000938043669    0.1000
     14 C14        -5.7052    1.6796   50.3467 C.3     1  ZINC000938043669   -0.1400
     15 C15        -4.2985    2.2731   50.0700 C.3     1  ZINC000938043669    0.1300
     16 H16        -4.3635    3.1447   49.4187 H       1  ZINC000938043669    0.1100
     17 N17        -3.4045    1.2615   49.5011 N.am    1  ZINC000938043669   -0.7200
     18 C18        -2.2205    1.6293   48.9726 C.2     1  ZINC000938043669    0.5200
     19 O19        -1.8945    2.7975   48.9694 O.2     1  ZINC000938043669   -0.5200
     20 C20        -1.3015    0.5891   48.3859 C.3     1  ZINC000938043669   -0.1000
     21 H21        -1.8203   -0.3683   48.3383 H       1  ZINC000938043669    0.1000
     22 C22        -0.0580    0.4518   49.2674 C.3     1  ZINC000938043669   -0.1100
     23 C23         1.1934    0.7854   48.4452 C.3     1  ZINC000938043669   -0.0600
     24 H24         2.0872    0.7440   49.0677 H       1  ZINC000938043669    0.0800
     25 C25         1.0085    2.1770   47.8584 C.2     1  ZINC000938043669   -0.1800
     26 C26        -0.0729    2.2964   47.0917 C.2     1  ZINC000938043669   -0.1300
     27 C27        -0.8838    1.0149   46.9725 C.3     1  ZINC000938043669   -0.0400
     28 H28        -1.7524    1.1653   46.3313 H       1  ZINC000938043669    0.0900
     29 C29         0.0379   -0.0681   46.3951 C.3     1  ZINC000938043669   -0.1200
     30 C30         1.2904   -0.2166   47.2864 C.3     1  ZINC000938043669   -0.1100
     31 C31        -3.8460    2.6816   51.4917 C.3     1  ZINC000938043669    0.1000
     32 H32        -3.0506    3.8081   53.7032 H       1  ZINC000938043669    0.1000
     33 H33        -3.5273    5.4559   53.2277 H       1  ZINC000938043669    0.1000
     34 H34        -4.0492    5.6095   57.6721 H       1  ZINC000938043669    0.1400
     35 H35        -2.1088    6.4796   58.9124 H       1  ZINC000938043669    0.1300
     36 H36         0.0605    6.7430   57.7818 H       1  ZINC000938043669    0.1400
     37 H37         0.2969    6.1388   55.4072 H       1  ZINC000938043669    0.1500
     38 H38        -6.7948    1.9600   52.2035 H       1  ZINC000938043669    0.0800
     39 H39        -6.8764    3.3512   51.0868 H       1  ZINC000938043669    0.0800
     40 H40        -5.6291    0.6407   50.6679 H       1  ZINC000938043669    0.0900
     41 H41        -6.3406    1.7662   49.4653 H       1  ZINC000938043669    0.1000
     42 H42        -3.6646    0.3270   49.5049 H       1  ZINC000938043669    0.4000
     43 H43        -0.1327    1.1391   50.1100 H       1  ZINC000938043669    0.0700
     44 H44         0.0131   -0.5707   49.6382 H       1  ZINC000938043669    0.0800
     45 H45         1.6914    2.9923   48.0464 H       1  ZINC000938043669    0.1200
     46 H46        -0.3493    3.2176   46.6005 H       1  ZINC000938043669    0.1200
     47 H47        -0.4933   -1.0194   46.3661 H       1  ZINC000938043669    0.0700
     48 H48         0.3378    0.2111   45.3849 H       1  ZINC000938043669    0.0700
     49 H49         2.1825   -0.0031   46.6976 H       1  ZINC000938043669    0.0700
     50 H50         1.3443   -1.2352   47.6703 H       1  ZINC000938043669    0.0700
     51 H51        -3.0984    3.4731   51.4389 H       1  ZINC000938043669    0.0900
     52 H52        -3.4488    1.8185   52.0260 H       1  ZINC000938043669    0.0700
@<TRIPOS>BOND
     1     1     2    2
     2     2     3    1
     3     2    12   am
     4     3     4    1
     5     3    32    1
     6     3    33    1
     7     4     5    1
     8     5    10   ar
     9     5     6   ar
    10     6     7   ar
    11     6    34    1
    12     7     8   ar
    13     7    35    1
    14     8     9   ar
    15     8    36    1
    16     9    10   ar
    17     9    37    1
    18    10    11    1
    19    12    31    1
    20    12    13    1
    21    13    14    1
    22    13    38    1
    23    13    39    1
    24    14    15    1
    25    14    40    1
    26    14    41    1
    27    15    16    1
    28    15    17    1
    29    15    31    1
    30    17    18   am
    31    17    42    1
    32    18    19    2
    33    18    20    1
    34    20    21    1
    35    20    27    1
    36    20    22    1
    37    22    23    1
    38    22    43    1
    39    22    44    1
    40    23    24    1
    41    23    30    1
    42    23    25    1
    43    25    26    2
    44    25    45    1
    45    26    27    1
    46    26    46    1
    47    27    28    1
    48    27    29    1
    49    29    30    1
    50    29    47    1
    51    29    48    1
    52    30    49    1
    53    30    50    1
    54    31    51    1
    55    31    52    1
@<TRIPOS>SUBSTRUCTURE
     1 ZINC000938043669        1 TEMP              0 ****  ****    0 ROOT


##########                                Name:    ZINC001207290212
##########                DOCK_Rotatable_Bonds:                   8
##########                         Heavy_Atoms:                  23
##########                    Molecular_Weight:             344.435
##########                DOCK_Rotatable_Bonds:                   8
##########                       Formal_Charge:               -0.03
##########                     HBond_Acceptors:                   9
##########                        HBond_Donors:                   2
##########                         Heavy_Atoms:                  23
##########                          Grid_Score:          -29.661497
##########                     Grid_vdw_energy:          -28.540716
##########                      Grid_es_energy:           -1.120781
##########           Internal_energy_repulsive:            7.052451

@<TRIPOS>MOLECULE
ZINC001207290212
 47 48 1 0 0
SMALL
USER_CHARGES


@<TRIPOS>ATOM
      1 C1          0.8950    3.9319   53.9912 C.3     1  ZINC001207290212   -0.1500
      2 C2          1.7395    3.4400   52.8140 C.3     1  ZINC001207290212   -0.6300
      3 S3          3.4901    3.4282   53.2888 S.o2    1  ZINC001207290212    2.6100
      4 O4          3.9690    4.7550   53.4613 O.2     1  ZINC001207290212   -0.9500
      5 O5          3.7345    2.4281   54.2684 O.2     1  ZINC001207290212   -0.9500
      6 N6          4.2804    2.8809   51.9404 N.am    1  ZINC001207290212   -1.1100
      7 C7          3.9716    1.5557   51.3978 C.3     1  ZINC001207290212    0.0900
      8 C8          2.9513    1.6889   50.2968 C.2     1  ZINC001207290212    0.5100
      9 O9          3.0752    2.5548   49.4566 O.2     1  ZINC001207290212   -0.5300
     10 N10         1.9010    0.8459   50.2457 N.am    1  ZINC001207290212   -0.7200
     11 C11         0.9100    0.9743   49.1745 C.3     1  ZINC001207290212    0.1400
     12 H12         1.4065    1.0352   48.2060 H       1  ZINC001207290212    0.1000
     13 C13         0.0325    2.2187   49.4043 C.3     1  ZINC001207290212    0.0200
     14 N14        -1.3564    1.7431   49.5834 N.3     1  ZINC001207290212   -0.5100
     15 C15        -2.3177    2.7024   49.0235 C.3     1  ZINC001207290212    0.1300
     16 C16        -3.6972    2.3943   49.5460 C.2     1  ZINC001207290212    0.0000
     17 C17        -4.8410    2.9833   49.1597 C.2     1  ZINC001207290212   -0.0700
     18 O18        -5.8373    2.4182   49.8695 O.3     1  ZINC001207290212   -0.2000
     19 C19        -5.2932    1.4968   50.6754 C.2     1  ZINC001207290212    0.1900
     20 C20        -6.0471    0.6232   51.6447 C.3     1  ZINC001207290212   -0.0600
     21 N21        -4.0057    1.4761   50.4788 N.2     1  ZINC001207290212   -0.4700
     22 C22        -1.4323    0.4391   48.8763 C.3     1  ZINC001207290212    0.0400
     23 C23        -0.0679   -0.2228   49.2018 C.3     1  ZINC001207290212   -0.1000
     24 H24        -0.0876   -0.6809   50.1906 H       1  ZINC001207290212    0.0900
     25 C25         0.3005   -1.2563   48.1355 C.3     1  ZINC001207290212   -0.1400
     26 H26         1.0360    3.2662   54.8427 H       1  ZINC001207290212    0.0700
     27 H27         1.2043    4.9409   54.2636 H       1  ZINC001207290212    0.0700
     28 H28        -0.1569    3.9390   53.7058 H       1  ZINC001207290212    0.0800
     29 H29         1.4301    2.4309   52.5415 H       1  ZINC001207290212    0.1300
     30 H30         1.5985    4.1056   51.9624 H       1  ZINC001207290212    0.1300
     31 H31         4.9478    3.4379   51.5099 H       1  ZINC001207290212    0.4300
     32 H32         4.8806    1.1059   50.9983 H       1  ZINC001207290212    0.1000
     33 H33         3.5709    0.9231   52.1899 H       1  ZINC001207290212    0.1100
     34 H34         1.8012    0.1541   50.9184 H       1  ZINC001207290212    0.4100
     35 H35         0.3629    2.7458   50.2994 H       1  ZINC001207290212    0.0800
     36 H36         0.0902    2.8789   48.5388 H       1  ZINC001207290212    0.0500
     37 H37        -2.0352    3.7133   49.3174 H       1  ZINC001207290212    0.0600
     38 H38        -2.3156    2.6262   47.9361 H       1  ZINC001207290212    0.1000
     39 H39        -4.9429    3.7634   48.4197 H       1  ZINC001207290212    0.2100
     40 H40        -7.1108    0.8556   51.5917 H       1  ZINC001207290212    0.0900
     41 H41        -5.8909   -0.4243   51.3871 H       1  ZINC001207290212    0.1000
     42 H42        -5.6852    0.8065   52.6564 H       1  ZINC001207290212    0.1000
     43 H43        -2.2543   -0.1620   49.2649 H       1  ZINC001207290212    0.0900
     44 H44        -1.5389    0.5897   47.8020 H       1  ZINC001207290212    0.0500
     45 H45         0.3441   -0.7722   47.1599 H       1  ZINC001207290212    0.0600
     46 H46         1.2729   -1.6895   48.3700 H       1  ZINC001207290212    0.0600
     47 H47        -0.4530   -2.0437   48.1171 H       1  ZINC001207290212    0.0600
@<TRIPOS>BOND
     1     1     2    1
     2     1    26    1
     3     1    27    1
     4     1    28    1
     5     2     3    1
     6     2    29    1
     7     2    30    1
     8     3     4    2
     9     3     5    2
    10     3     6   am
    11     6     7    1
    12     6    31    1
    13     7     8    1
    14     7    32    1
    15     7    33    1
    16     8     9    2
    17     8    10   am
    18    10    11    1
    19    10    34    1
    20    11    12    1
    21    11    23    1
    22    11    13    1
    23    13    14    1
    24    13    35    1
    25    13    36    1
    26    14    15    1
    27    14    22    1
    28    15    16    1
    29    15    37    1
    30    15    38    1
    31    16    21    1
    32    16    17    2
    33    17    18    1
    34    17    39    1
    35    18    19    1
    36    19    20    1
    37    19    21    2
    38    20    40    1
    39    20    41    1
    40    20    42    1
    41    22    23    1
    42    22    43    1
    43    22    44    1
    44    23    24    1
    45    23    25    1
    46    25    45    1
    47    25    46    1
    48    25    47    1
@<TRIPOS>SUBSTRUCTURE
     1 ZINC001207290212        1 TEMP              0 ****  ****    0 ROOT


##########                                Name:    ZINC000650955167
##########                DOCK_Rotatable_Bonds:                   9
##########                         Heavy_Atoms:                  26
##########                    Molecular_Weight:             361.484
##########                DOCK_Rotatable_Bonds:                   9
##########                       Formal_Charge:        -7.07805e-07
##########                     HBond_Acceptors:                   6
##########                        HBond_Donors:                   2
##########                         Heavy_Atoms:                  26
##########                          Grid_Score:          -29.629202
##########                     Grid_vdw_energy:          -28.440304
##########                      Grid_es_energy:           -1.188898
##########           Internal_energy_repulsive:           28.287872

@<TRIPOS>MOLECULE
ZINC000650955167
 57 59 1 0 0
SMALL
USER_CHARGES


@<TRIPOS>ATOM
      1 C1          1.2364    4.3143   46.7536 C.3     1  ZINC000650955167    0.0200
      2 O2          1.7755    4.1804   48.0703 O.3     1  ZINC000650955167   -0.3200
      3 C3          0.9205    4.3706   49.1094 C.ar    1  ZINC000650955167    0.1300
      4 C4          0.6534    5.6538   49.5633 C.ar    1  ZINC000650955167   -0.2000
      5 C5         -0.2167    5.8445   50.6196 C.ar    1  ZINC000650955167   -0.0800
      6 C6         -0.8205    4.7577   51.2241 C.ar    1  ZINC000650955167   -0.1500
      7 C7         -0.5554    3.4774   50.7738 C.ar    1  ZINC000650955167   -0.0800
      8 C8          0.3088    3.2818   49.7142 C.ar    1  ZINC000650955167   -0.1100
      9 C9          0.5968    1.8864   49.2234 C.3     1  ZINC000650955167   -0.0800
     10 C10        -0.5910    1.3788   48.4035 C.3     1  ZINC000650955167    0.1800
     11 H11        -0.7124    2.0005   47.5165 H       1  ZINC000650955167    0.0900
     12 N12        -1.8085    1.4440   49.2159 N.am    1  ZINC000650955167   -0.7300
     13 C13        -2.8791    2.1315   48.7714 C.2     1  ZINC000650955167    0.7400
     14 O14        -2.8351    2.6962   47.6955 O.2     1  ZINC000650955167   -0.5800
     15 N15        -3.9986    2.1928   49.5194 N.am    1  ZINC000650955167   -0.6700
     16 C16        -5.3277    2.8085   49.3880 C.3     1  ZINC000650955167    0.1100
     17 C17        -5.3948    2.8617   50.9206 C.3     1  ZINC000650955167    0.0300
     18 N18        -6.7117    2.5250   51.4778 N.3     1  ZINC000650955167   -0.5100
     19 C19        -7.6293    3.6820   51.4049 C.3     1  ZINC000650955167    0.0400
     20 C20        -8.5213    3.5595   52.6655 C.3     1  ZINC000650955167   -0.1600
     21 C21        -7.5085    3.0334   53.7162 C.3     1  ZINC000650955167    0.0800
     22 H22        -6.9340    3.8554   54.1430 H       1  ZINC000650955167    0.0600
     23 O23        -8.1803    2.3018   54.7436 O.3     1  ZINC000650955167   -0.5600
     24 C24        -6.5976    2.1043   52.8863 C.3     1  ZINC000650955167    0.0500
     25 C25        -4.4308    1.6679   50.8235 C.3     1  ZINC000650955167    0.1400
     26 C26        -0.3371   -0.0695   47.9806 C.3     1  ZINC000650955167   -0.1100
     27 C27         0.9879   -0.1538   47.2201 C.3     1  ZINC000650955167   -0.1400
     28 C28        -0.2692   -0.9592   49.2235 C.3     1  ZINC000650955167   -0.1500
     29 H29         2.0225    4.1379   46.0195 H       1  ZINC000650955167    0.1000
     30 H30         0.4374    3.5864   46.6124 H       1  ZINC000650955167    0.0600
     31 H31         0.8380    5.3207   46.6248 H       1  ZINC000650955167    0.0600
     32 H32         1.1253    6.5031   49.0919 H       1  ZINC000650955167    0.1300
     33 H33        -0.4251    6.8434   50.9735 H       1  ZINC000650955167    0.1200
     34 H34        -1.5000    4.9087   52.0499 H       1  ZINC000650955167    0.1200
     35 H35        -1.0281    2.6299   51.2479 H       1  ZINC000650955167    0.1300
     36 H36         1.4905    1.8979   48.5995 H       1  ZINC000650955167    0.0900
     37 H37         0.7577    1.2272   50.0765 H       1  ZINC000650955167    0.0800
     38 H38        -1.8439    0.9924   50.0736 H       1  ZINC000650955167    0.4000
     39 H39        -5.3057    3.7927   48.9200 H       1  ZINC000650955167    0.0700
     40 H40        -6.0707    2.1463   48.9437 H       1  ZINC000650955167    0.0900
     41 H41        -4.9599    3.7613   51.3561 H       1  ZINC000650955167    0.0900
     42 H42        -7.0661    4.6150   51.4279 H       1  ZINC000650955167    0.0500
     43 H43        -8.2381    3.6273   50.5024 H       1  ZINC000650955167    0.0900
     44 H44        -8.9188    4.5312   52.9586 H       1  ZINC000650955167    0.0800
     45 H45        -9.3263    2.8421   52.5057 H       1  ZINC000650955167    0.0900
     46 H46        -8.8362    2.8195   55.2303 H       1  ZINC000650955167    0.3800
     47 H47        -6.9269    1.0707   52.9924 H       1  ZINC000650955167    0.0900
     48 H48        -5.5646    2.2028   53.2202 H       1  ZINC000650955167    0.0700
     49 H49        -4.9373    0.7048   50.7614 H       1  ZINC000650955167    0.0900
     50 H50        -3.6439    1.6829   51.5777 H       1  ZINC000650955167    0.0800
     51 H51        -1.1483   -0.4073   47.3358 H       1  ZINC000650955167    0.0700
     52 H52         1.7992    0.1840   47.8650 H       1  ZINC000650955167    0.0600
     53 H53         1.1688   -1.1856   46.9189 H       1  ZINC000650955167    0.0400
     54 H54         0.9396    0.4801   46.3347 H       1  ZINC000650955167    0.0500
     55 H55        -1.2131   -0.8991   49.7653 H       1  ZINC000650955167    0.0600
     56 H56        -0.0882   -1.9910   48.9222 H       1  ZINC000650955167    0.0600
     57 H57         0.5421   -0.6213   49.8684 H       1  ZINC000650955167    0.0600
@<TRIPOS>BOND
     1     1     2    1
     2     1    29    1
     3     1    30    1
     4     1    31    1
     5     2     3    1
     6     3     8   ar
     7     3     4   ar
     8     4     5   ar
     9     4    32    1
    10     5     6   ar
    11     5    33    1
    12     6     7   ar
    13     6    34    1
    14     7     8   ar
    15     7    35    1
    16     8     9    1
    17     9    10    1
    18     9    36    1
    19     9    37    1
    20    10    11    1
    21    10    12    1
    22    10    26    1
    23    12    13   am
    24    12    38    1
    25    13    14    2
    26    13    15   am
    27    15    25    1
    28    15    16    1
    29    16    17    1
    30    16    39    1
    31    16    40    1
    32    17    18    1
    33    17    25    1
    34    17    41    1
    35    18    24    1
    36    18    19    1
    37    19    20    1
    38    19    42    1
    39    19    43    1
    40    20    21    1
    41    20    44    1
    42    20    45    1
    43    21    22    1
    44    21    23    1
    45    21    24    1
    46    23    46    1
    47    24    47    1
    48    24    48    1
    49    25    49    1
    50    25    50    1
    51    26    27    1
    52    26    28    1
    53    26    51    1
    54    27    52    1
    55    27    53    1
    56    27    54    1
    57    28    55    1
    58    28    56    1
    59    28    57    1
@<TRIPOS>SUBSTRUCTURE
     1 ZINC000650955167        1 TEMP              0 ****  ****    0 ROOT


##########                                Name:    ZINC001456096501
##########                DOCK_Rotatable_Bonds:                   7
##########                         Heavy_Atoms:                  24
##########                    Molecular_Weight:             333.431
##########                DOCK_Rotatable_Bonds:                   7
##########                       Formal_Charge:          -0.0200003
##########                     HBond_Acceptors:                   6
##########                        HBond_Donors:                   0
##########                         Heavy_Atoms:                  24
##########                          Grid_Score:          -29.627447
##########                     Grid_vdw_energy:          -29.930534
##########                      Grid_es_energy:            0.303087
##########           Internal_energy_repulsive:          128.346191

@<TRIPOS>MOLECULE
ZINC001456096501
 51 52 1 0 0
SMALL
USER_CHARGES


@<TRIPOS>ATOM
      1 C1         -1.1443   -1.0422   49.0954 C.3     1  ZINC001456096501    0.0400
      2 O2         -0.0534   -0.3517   48.4828 O.3     1  ZINC001456096501   -0.2900
      3 C3         -0.3356    0.3974   47.3904 C.ar    1  ZINC001456096501    0.3700
      4 N4         -0.3269   -0.1598   46.1915 N.ar    1  ZINC001456096501   -0.5400
      5 C5         -0.5962    0.5323   45.1013 C.ar    1  ZINC001456096501    0.1600
      6 C6         -0.9012    1.8798   45.1656 C.ar    1  ZINC001456096501   -0.2200
      7 C7         -0.9246    2.5144   46.3951 C.ar    1  ZINC001456096501   -0.0200
      8 C8         -0.6410    1.7589   47.5384 C.ar    1  ZINC001456096501   -0.2000
      9 C9         -0.6526    2.3849   48.8742 C.2     1  ZINC001456096501    0.5900
     10 O10         0.3950    2.6759   49.4184 O.2     1  ZINC001456096501   -0.5100
     11 N11        -1.8246    2.6343   49.4913 N.am    1  ZINC001456096501   -0.6200
     12 C12        -1.9809    3.2506   50.8170 C.3     1  ZINC001456096501    0.1000
     13 C13        -3.4931    3.3114   51.1185 C.3     1  ZINC001456096501   -0.1200
     14 C14        -4.0766    2.2115   50.1927 C.3     1  ZINC001456096501   -0.1200
     15 H15        -3.9835    1.2263   50.6497 H       1  ZINC001456096501    0.0900
     16 C16        -5.5337    2.5117   49.8354 C.3     1  ZINC001456096501    0.1200
     17 N17        -6.3705    2.3582   51.0281 N.am    1  ZINC001456096501   -0.6200
     18 C18        -6.5857    1.0292   51.6058 C.3     1  ZINC001456096501    0.0600
     19 C19        -6.9422    3.4396   51.5940 C.2     1  ZINC001456096501    0.5200
     20 O20        -6.7641    4.5398   51.1158 O.2     1  ZINC001456096501   -0.5300
     21 C21        -7.8029    3.2816   52.8209 C.3     1  ZINC001456096501   -0.0800
     22 C22        -9.1341    2.6363   52.4303 C.3     1  ZINC001456096501   -0.1300
     23 C23        -7.0839    2.3923   53.8373 C.3     1  ZINC001456096501   -0.1500
     24 C24        -8.0647    4.6557   53.4407 C.3     1  ZINC001456096501   -0.1700
     25 C25        -3.1624    2.3401   48.9461 C.3     1  ZINC001456096501    0.1200
     26 H26        -1.8942   -0.3210   49.4205 H       1  ZINC001456096501    0.0600
     27 H27        -1.5892   -1.7296   48.3759 H       1  ZINC001456096501    0.0600
     28 H28        -0.7816   -1.6027   49.9570 H       1  ZINC001456096501    0.1000
     29 H29        -0.5777    0.0380   44.1413 H       1  ZINC001456096501    0.1700
     30 H30        -1.1189    2.4323   44.2635 H       1  ZINC001456096501    0.1500
     31 H31        -1.1597    3.5657   46.4708 H       1  ZINC001456096501    0.1500
     32 H32        -1.4769    2.6441   51.5695 H       1  ZINC001456096501    0.0700
     33 H33        -1.5637    4.2575   50.8092 H       1  ZINC001456096501    0.0700
     34 H34        -3.6873    3.0774   52.1652 H       1  ZINC001456096501    0.0900
     35 H35        -3.8990    4.2892   50.8592 H       1  ZINC001456096501    0.0800
     36 H36        -5.6137    3.5335   49.4645 H       1  ZINC001456096501    0.0800
     37 H37        -5.8691    1.8179   49.0645 H       1  ZINC001456096501    0.0900
     38 H38        -5.8429    0.8459   52.3821 H       1  ZINC001456096501    0.0600
     39 H39        -7.5845    0.9789   52.0394 H       1  ZINC001456096501    0.0900
     40 H40        -6.4898    0.2740   50.8256 H       1  ZINC001456096501    0.0700
     41 H41        -8.9476    1.6574   51.9888 H       1  ZINC001456096501    0.0600
     42 H42        -9.7566    2.5221   53.3177 H       1  ZINC001456096501    0.0600
     43 H43        -9.6462    3.2699   51.7062 H       1  ZINC001456096501    0.0600
     44 H44        -6.0817    2.7819   54.0161 H       1  ZINC001456096501    0.0700
     45 H45        -7.6430    2.3845   54.7729 H       1  ZINC001456096501    0.0700
     46 H46        -7.0147    1.3770   53.4470 H       1  ZINC001456096501    0.0600
     47 H47        -8.5769    5.2893   52.7165 H       1  ZINC001456096501    0.0600
     48 H48        -8.6873    4.5415   54.3280 H       1  ZINC001456096501    0.0700
     49 H49        -7.1163    5.1154   53.7189 H       1  ZINC001456096501    0.0800
     50 H50        -3.5046    3.1540   48.3069 H       1  ZINC001456096501    0.0800
     51 H51        -3.1440    1.4024   48.3906 H       1  ZINC001456096501    0.0700
@<TRIPOS>BOND
     1     1     2    1
     2     1    26    1
     3     1    27    1
     4     1    28    1
     5     2     3    1
     6     3     8   ar
     7     3     4   ar
     8     4     5   ar
     9     5     6   ar
    10     5    29    1
    11     6     7   ar
    12     6    30    1
    13     7     8   ar
    14     7    31    1
    15     8     9    1
    16     9    10    2
    17     9    11   am
    18    11    25    1
    19    11    12    1
    20    12    13    1
    21    12    32    1
    22    12    33    1
    23    13    14    1
    24    13    34    1
    25    13    35    1
    26    14    15    1
    27    14    16    1
    28    14    25    1
    29    16    17    1
    30    16    36    1
    31    16    37    1
    32    17    18    1
    33    17    19   am
    34    18    38    1
    35    18    39    1
    36    18    40    1
    37    19    20    2
    38    19    21    1
    39    21    22    1
    40    21    23    1
    41    21    24    1
    42    22    41    1
    43    22    42    1
    44    22    43    1
    45    23    44    1
    46    23    45    1
    47    23    46    1
    48    24    47    1
    49    24    48    1
    50    24    49    1
    51    25    50    1
    52    25    51    1
@<TRIPOS>SUBSTRUCTURE
     1 ZINC001456096501        1 TEMP              0 ****  ****    0 ROOT


##########                                Name:    ZINC000469459940
##########                DOCK_Rotatable_Bonds:                   7
##########                         Heavy_Atoms:                  24
##########                    Molecular_Weight:             414.295
##########                DOCK_Rotatable_Bonds:                   7
##########                       Formal_Charge:          -0.0200002
##########                     HBond_Acceptors:                   6
##########                        HBond_Donors:                   1
##########                         Heavy_Atoms:                  24
##########                          Grid_Score:          -29.625340
##########                     Grid_vdw_energy:          -29.327385
##########                      Grid_es_energy:           -0.297954
##########           Internal_energy_repulsive:           10.941125

@<TRIPOS>MOLECULE
ZINC000469459940
 41 42 1 0 0
SMALL
USER_CHARGES


@<TRIPOS>ATOM
      1 C1         -9.1345    4.0130   58.2487 C.3     1  ZINC000469459940   -0.1600
      2 C2         -7.6833    3.5987   58.5000 C.3     1  ZINC000469459940   -0.1200
      3 C3         -7.2998    2.4737   57.5366 C.3     1  ZINC000469459940   -0.1200
      4 C4         -6.3321    3.0133   56.4816 C.3     1  ZINC000469459940   -0.6000
      5 S5         -7.2372    3.3481   54.9457 S.o2    1  ZINC000469459940    2.4900
      6 O6         -8.2476    2.3707   54.7390 O.2     1  ZINC000469459940   -0.9300
      7 O7         -7.5245    4.7348   54.8283 O.2     1  ZINC000469459940   -0.9300
      8 C8         -6.0645    3.0377   53.6676 C.ar    1  ZINC000469459940   -0.6400
      9 C9         -6.2259    1.9440   52.8357 C.ar    1  ZINC000469459940   -0.0300
     10 C10        -5.3113    1.6950   51.8334 C.ar    1  ZINC000469459940   -0.0800
     11 C11        -4.2214    2.5496   51.6593 C.ar    1  ZINC000469459940   -0.0900
     12 C12        -3.2377    2.2893   50.5872 C.2     1  ZINC000469459940    0.5600
     13 O13        -2.3187    3.0638   50.4045 O.2     1  ZINC000469459940   -0.5000
     14 N14        -3.3598    1.1935   49.8121 N.am    1  ZINC000469459940   -0.6700
     15 C15        -2.4289    0.9472   48.7975 C.ar    1  ZINC000469459940    0.1900
     16 C16        -2.3007    1.8384   47.7402 C.ar    1  ZINC000469459940   -0.1500
     17 C17        -1.3809    1.5939   46.7389 C.ar    1  ZINC000469459940   -0.0400
     18 C18        -0.5875    0.4622   46.7875 C.ar    1  ZINC000469459940   -0.1500
     19 Br19        0.6703    0.1313   45.4148 Br      1  ZINC000469459940   -0.0200
     20 C20        -0.7125   -0.4297   47.8412 C.ar    1  ZINC000469459940    0.1500
     21 F21         0.0637   -1.5345   47.8866 F       1  ZINC000469459940   -0.1200
     22 C22        -1.6276   -0.1859   48.8490 C.ar    1  ZINC000469459940   -0.1500
     23 C23        -4.0648    3.6515   52.5019 C.ar    1  ZINC000469459940   -0.1100
     24 C24        -4.9895    3.8919   53.4970 C.ar    1  ZINC000469459940   -0.0300
     25 H25        -9.2399    4.3624   57.2215 H       1  ZINC000469459940    0.0600
     26 H26        -9.7898    3.1571   58.4103 H       1  ZINC000469459940    0.0600
     27 H27        -9.4077    4.8145   58.9350 H       1  ZINC000469459940    0.0600
     28 H28        -7.0279    4.4546   58.3383 H       1  ZINC000469459940    0.0700
     29 H29        -7.5779    3.2493   59.5270 H       1  ZINC000469459940    0.0700
     30 H30        -6.8197    1.6678   58.0917 H       1  ZINC000469459940    0.0800
     31 H31        -8.1963    2.0935   57.0468 H       1  ZINC000469459940    0.0800
     32 H32        -5.8771    3.9352   56.8436 H       1  ZINC000469459940    0.1400
     33 H33        -5.5536    2.2745   56.2908 H       1  ZINC000469459940    0.1400
     34 H34        -7.0696    1.2836   52.9714 H       1  ZINC000469459940    0.1500
     35 H35        -5.4380    0.8406   51.1851 H       1  ZINC000469459940    0.1500
     36 H36        -4.0932    0.5756   49.9579 H       1  ZINC000469459940    0.4200
     37 H37        -2.9200    2.7222   47.7005 H       1  ZINC000469459940    0.1500
     38 H38        -1.2815    2.2872   45.9168 H       1  ZINC000469459940    0.1500
     39 H39        -1.7253   -0.8804   49.6703 H       1  ZINC000469459940    0.1600
     40 H40        -3.2236    4.3163   52.3728 H       1  ZINC000469459940    0.1400
     41 H41        -4.8695    4.7440   54.1496 H       1  ZINC000469459940    0.1500
@<TRIPOS>BOND
     1     1     2    1
     2     1    25    1
     3     1    26    1
     4     1    27    1
     5     2     3    1
     6     2    28    1
     7     2    29    1
     8     3     4    1
     9     3    30    1
    10     3    31    1
    11     4     5    1
    12     4    32    1
    13     4    33    1
    14     5     6    2
    15     5     7    2
    16     5     8    1
    17     8    24   ar
    18     8     9   ar
    19     9    10   ar
    20     9    34    1
    21    10    11   ar
    22    10    35    1
    23    11    12    1
    24    11    23   ar
    25    12    13    2
    26    12    14   am
    27    14    15    1
    28    14    36    1
    29    15    22   ar
    30    15    16   ar
    31    16    17   ar
    32    16    37    1
    33    17    18   ar
    34    17    38    1
    35    18    19    1
    36    18    20   ar
    37    20    21    1
    38    20    22   ar
    39    22    39    1
    40    23    24   ar
    41    23    40    1
    42    24    41    1
@<TRIPOS>SUBSTRUCTURE
     1 ZINC000469459940        1 TEMP              0 ****  ****    0 ROOT


##########                                Name:    ZINC000967287417
##########                DOCK_Rotatable_Bonds:                   7
##########                         Heavy_Atoms:                  25
##########                    Molecular_Weight:             347.414
##########                DOCK_Rotatable_Bonds:                   7
##########                       Formal_Charge:          -0.0200002
##########                     HBond_Acceptors:                   7
##########                        HBond_Donors:                   1
##########                         Heavy_Atoms:                  25
##########                          Grid_Score:          -29.623672
##########                     Grid_vdw_energy:          -29.221848
##########                      Grid_es_energy:           -0.401825
##########           Internal_energy_repulsive:           11.902357

@<TRIPOS>MOLECULE
ZINC000967287417
 50 52 1 0 0
SMALL
USER_CHARGES


@<TRIPOS>ATOM
      1 C1         -5.1883    1.4252   52.5843 C.3     1  ZINC000967287417    0.0300
      2 O2         -5.9752    0.8736   51.5266 O.3     1  ZINC000967287417   -0.3900
      3 C3         -6.0150    1.6823   50.3492 C.3     1  ZINC000967287417    0.1400
      4 C4         -4.6327    1.7741   49.7559 C.2     1  ZINC000967287417    0.0100
      5 C5         -4.2232    2.6928   48.8536 C.2     1  ZINC000967287417   -0.1900
      6 C6         -2.8755    2.4212   48.5701 C.2     1  ZINC000967287417   -0.1200
      7 C7         -2.5268    1.3369   49.3233 C.2     1  ZINC000967287417   -0.0700
      8 C8         -1.2082    0.6957   49.3520 C.2     1  ZINC000967287417    0.6100
      9 O9         -1.1203   -0.5083   49.5054 O.2     1  ZINC000967287417   -0.5200
     10 N10        -0.0936    1.4398   49.2086 N.am    1  ZINC000967287417   -0.7000
     11 C11         1.2235    0.7990   49.2355 C.3     1  ZINC000967287417    0.1600
     12 H12         1.2285    0.0087   49.9863 H       1  ZINC000967287417    0.1000
     13 C13         1.5283    0.1994   47.8609 C.3     1  ZINC000967287417    0.0400
     14 N14         1.5416    1.2666   46.8521 N.3     1  ZINC000967287417   -0.5300
     15 C15         1.6937    0.7114   45.5006 C.3     1  ZINC000967287417    0.1300
     16 C16         1.6826    1.8321   44.4931 C.2     1  ZINC000967287417    0.0200
     17 N17         2.5210    2.0079   43.5129 N.2     1  ZINC000967287417   -0.3500
     18 O18         2.2555    2.9983   42.8721 O.3     1  ZINC000967287417    0.1000
     19 C19         1.1754    3.6252   43.3588 C.2     1  ZINC000967287417   -0.0300
     20 C20         0.5475    4.8869   42.8250 C.3     1  ZINC000967287417   -0.0800
     21 C21         0.7560    2.8975   44.4214 C.2     1  ZINC000967287417   -0.2400
     22 C22         2.5910    2.2535   47.1370 C.3     1  ZINC000967287417    0.0500
     23 C23         2.3179    2.9142   48.4900 C.3     1  ZINC000967287417   -0.1100
     24 C24         2.2915    1.8400   49.5819 C.3     1  ZINC000967287417   -0.1000
     25 H25         3.2665    1.3561   49.6405 H       1  ZINC000967287417    0.0900
     26 C26         1.9603    2.4874   50.9282 C.3     1  ZINC000967287417   -0.1500
     27 O27        -3.6063    0.9622   50.0405 O.3     1  ZINC000967287417   -0.1600
     28 H28        -5.5959    2.3940   52.8732 H       1  ZINC000967287417    0.0500
     29 H29        -5.2089    0.7522   53.4415 H       1  ZINC000967287417    0.0900
     30 H30        -4.1600    1.5501   52.2451 H       1  ZINC000967287417    0.0500
     31 H31        -6.6930    1.2339   49.6231 H       1  ZINC000967287417    0.0900
     32 H32        -6.3671    2.6814   50.6064 H       1  ZINC000967287417    0.0700
     33 H33        -4.8203    3.4868   48.4301 H       1  ZINC000967287417    0.1600
     34 H34        -2.2379    2.9645   47.8883 H       1  ZINC000967287417    0.1600
     35 H35        -0.1636    2.3997   49.0874 H       1  ZINC000967287417    0.4100
     36 H36         2.5023   -0.2892   47.8855 H       1  ZINC000967287417    0.0500
     37 H37         0.7616   -0.5321   47.6055 H       1  ZINC000967287417    0.0900
     38 H38         2.6385    0.1719   45.4336 H       1  ZINC000967287417    0.0600
     39 H39         0.8698    0.0285   45.2934 H       1  ZINC000967287417    0.0900
     40 H40         1.1102    5.2344   41.9586 H       1  ZINC000967287417    0.0800
     41 H41        -0.4826    4.6842   42.5318 H       1  ZINC000967287417    0.0900
     42 H42         0.5607    5.6547   43.5986 H       1  ZINC000967287417    0.0900
     43 H43        -0.0872    3.0901   45.0683 H       1  ZINC000967287417    0.1700
     44 H44         3.5600    1.7552   47.1650 H       1  ZINC000967287417    0.0400
     45 H45         2.5962    3.0137   46.3559 H       1  ZINC000967287417    0.0800
     46 H46         3.1055    3.6355   48.7083 H       1  ZINC000967287417    0.0700
     47 H47         1.3553    3.4244   48.4582 H       1  ZINC000967287417    0.0700
     48 H48         0.9843    2.9690   50.8693 H       1  ZINC000967287417    0.0600
     49 H49         1.9417    1.7224   51.7044 H       1  ZINC000967287417    0.0600
     50 H50         2.7189    3.2318   51.1698 H       1  ZINC000967287417    0.0600
@<TRIPOS>BOND
     1     1     2    1
     2     1    28    1
     3     1    29    1
     4     1    30    1
     5     2     3    1
     6     3     4    1
     7     3    31    1
     8     3    32    1
     9     4    27    1
    10     4     5    2
    11     5     6    1
    12     5    33    1
    13     6     7    2
    14     6    34    1
    15     7     8    1
    16     7    27    1
    17     8     9    2
    18     8    10   am
    19    10    11    1
    20    10    35    1
    21    11    12    1
    22    11    24    1
    23    11    13    1
    24    13    14    1
    25    13    36    1
    26    13    37    1
    27    14    15    1
    28    14    22    1
    29    15    16    1
    30    15    38    1
    31    15    39    1
    32    16    21    1
    33    16    17    2
    34    17    18    1
    35    18    19    1
    36    19    20    1
    37    19    21    2
    38    20    40    1
    39    20    41    1
    40    20    42    1
    41    21    43    1
    42    22    23    1
    43    22    44    1
    44    22    45    1
    45    23    24    1
    46    23    46    1
    47    23    47    1
    48    24    25    1
    49    24    26    1
    50    26    48    1
    51    26    49    1
    52    26    50    1
@<TRIPOS>SUBSTRUCTURE
     1 ZINC000967287417        1 TEMP              0 ****  ****    0 ROOT


##########                                Name:    ZINC000939075213
##########                DOCK_Rotatable_Bonds:                   7
##########                         Heavy_Atoms:                  24
##########                    Molecular_Weight:             327.426
##########                DOCK_Rotatable_Bonds:                   7
##########                       Formal_Charge:          -0.0200002
##########                     HBond_Acceptors:                   5
##########                        HBond_Donors:                   2
##########                         Heavy_Atoms:                  24
##########                          Grid_Score:          -29.618677
##########                     Grid_vdw_energy:          -28.991283
##########                      Grid_es_energy:           -0.627393
##########           Internal_energy_repulsive:           10.511125

@<TRIPOS>MOLECULE
ZINC000939075213
 49 51 1 0 0
SMALL
USER_CHARGES


@<TRIPOS>ATOM
      1 C1         -5.5072    4.3384   51.3819 C.3     1  ZINC000939075213   -0.1400
      2 C2         -5.9422    2.9229   50.9972 C.3     1  ZINC000939075213   -0.1100
      3 H3         -6.0698    2.8352   49.9183 H       1  ZINC000939075213    0.0900
      4 C4         -7.2372    2.5177   51.7444 C.3     1  ZINC000939075213    0.1100
      5 N5         -7.2021    1.0445   51.7887 N.am    1  ZINC000939075213   -0.6200
      6 C6         -8.2738    0.2367   51.9125 C.2     1  ZINC000939075213    0.5600
      7 O7         -8.1258   -0.9719   51.9365 O.2     1  ZINC000939075213   -0.5400
      8 C8         -9.5712    0.7928   52.0146 C.2     1  ZINC000939075213   -0.2600
      9 C9        -10.6601    0.0229   51.7688 C.2     1  ZINC000939075213    0.0400
     10 C10       -11.9590    0.5794   51.8709 C.2     1  ZINC000939075213    0.0000
     11 C11       -12.2651    1.8857   52.2052 C.2     1  ZINC000939075213   -0.1500
     12 C12       -13.6583    1.9986   52.1864 C.2     1  ZINC000939075213   -0.2200
     13 C13       -14.1698    0.7899   51.8494 C.2     1  ZINC000939075213    0.0200
     14 N14       -13.1472   -0.0803   51.6496 N.pl3   1  ZINC000939075213   -0.5000
     15 C15        -5.8045    0.6026   51.6745 C.3     1  ZINC000939075213    0.0900
     16 C16        -4.9338    1.8685   51.5254 C.3     1  ZINC000939075213    0.1400
     17 H17        -4.5280    2.1733   52.4901 H       1  ZINC000939075213    0.1100
     18 N18        -3.8557    1.6452   50.5589 N.am    1  ZINC000939075213   -0.7200
     19 C19        -2.7057    2.3406   50.6597 C.2     1  ZINC000939075213    0.5300
     20 O20        -2.5637    3.1524   51.5495 O.2     1  ZINC000939075213   -0.5300
     21 C21        -1.5960    2.1096   49.6665 C.3     1  ZINC000939075213   -0.0600
     22 C22        -0.2554    2.5560   50.2533 C.3     1  ZINC000939075213   -0.1300
     23 C23        -1.5404    0.6529   49.2687 C.2     1  ZINC000939075213   -0.1700
     24 C24        -1.3997    0.5234   47.9775 C.2     1  ZINC000939075213   -0.1400
     25 C25        -1.3382    1.8720   47.2989 C.3     1  ZINC000939075213   -0.1100
     26 C26        -1.8859    2.8659   48.3493 C.3     1  ZINC000939075213   -0.1100
     27 H27        -4.5533    4.5672   50.9066 H       1  ZINC000939075213    0.0600
     28 H28        -6.2599    5.0530   51.0484 H       1  ZINC000939075213    0.0700
     29 H29        -5.3987    4.4037   52.4644 H       1  ZINC000939075213    0.0600
     30 H30        -7.2367    2.9277   52.7543 H       1  ZINC000939075213    0.0700
     31 H31        -8.1145    2.8599   51.1956 H       1  ZINC000939075213    0.0800
     32 H32        -9.6940    1.8303   52.2884 H       1  ZINC000939075213    0.1300
     33 H33       -10.5372   -1.0147   51.4951 H       1  ZINC000939075213    0.1500
     34 H34       -11.5606    2.6707   52.4375 H       1  ZINC000939075213    0.1400
     35 H35       -14.2265    2.8913   52.4023 H       1  ZINC000939075213    0.1400
     36 H36       -15.2200    0.5576   51.7521 H       1  ZINC000939075213    0.1600
     37 H37       -13.2386   -1.0128   51.3985 H       1  ZINC000939075213    0.4100
     38 H38        -5.5141    0.0560   52.5718 H       1  ZINC000939075213    0.0800
     39 H39        -5.6872   -0.0328   50.7966 H       1  ZINC000939075213    0.0700
     40 H40        -3.9696    0.9968   49.8465 H       1  ZINC000939075213    0.4000
     41 H41        -0.0529    1.9941   51.1652 H       1  ZINC000939075213    0.0600
     42 H42         0.5379    2.3713   49.5291 H       1  ZINC000939075213    0.0700
     43 H43        -0.2962    3.6205   50.4841 H       1  ZINC000939075213    0.0600
     44 H44        -1.6077   -0.1726   49.9618 H       1  ZINC000939075213    0.1300
     45 H45        -1.3354   -0.4234   47.4620 H       1  ZINC000939075213    0.1300
     46 H46        -0.3086    2.1209   47.0413 H       1  ZINC000939075213    0.0800
     47 H47        -1.9654    1.8775   46.4076 H       1  ZINC000939075213    0.0800
     48 H48        -2.9561    3.0249   48.2167 H       1  ZINC000939075213    0.0900
     49 H49        -1.3442    3.8111   48.3133 H       1  ZINC000939075213    0.0800
@<TRIPOS>BOND
     1     1     2    1
     2     1    27    1
     3     1    28    1
     4     1    29    1
     5     2     3    1
     6     2    16    1
     7     2     4    1
     8     4     5    1
     9     4    30    1
    10     4    31    1
    11     5     6   am
    12     5    15    1
    13     6     7    2
    14     6     8    1
    15     8     9    2
    16     8    32    1
    17     9    10    1
    18     9    33    1
    19    10    14    1
    20    10    11    2
    21    11    12    1
    22    11    34    1
    23    12    13    2
    24    12    35    1
    25    13    14    1
    26    13    36    1
    27    14    37    1
    28    15    16    1
    29    15    38    1
    30    15    39    1
    31    16    17    1
    32    16    18    1
    33    18    19   am
    34    18    40    1
    35    19    20    2
    36    19    21    1
    37    21    26    1
    38    21    22    1
    39    21    23    1
    40    22    41    1
    41    22    42    1
    42    22    43    1
    43    23    24    2
    44    23    44    1
    45    24    25    1
    46    24    45    1
    47    25    26    1
    48    25    46    1
    49    25    47    1
    50    26    48    1
    51    26    49    1
@<TRIPOS>SUBSTRUCTURE
     1 ZINC000939075213        1 TEMP              0 ****  ****    0 ROOT


##########                                Name:    ZINC000338927927
##########                DOCK_Rotatable_Bonds:                   9
##########                         Heavy_Atoms:                  23
##########                    Molecular_Weight:             336.286
##########                DOCK_Rotatable_Bonds:                   9
##########                       Formal_Charge:         -0.00999999
##########                     HBond_Acceptors:                   9
##########                        HBond_Donors:                   2
##########                         Heavy_Atoms:                  23
##########                          Grid_Score:          -29.606544
##########                     Grid_vdw_energy:          -29.001663
##########                      Grid_es_energy:           -0.604881
##########           Internal_energy_repulsive:            8.040529

@<TRIPOS>MOLECULE
ZINC000338927927
 39 39 1 0 0
SMALL
USER_CHARGES


@<TRIPOS>ATOM
      1 C1         -5.9030    3.8927   52.7285 C.3     1  <0>        -0.1600
      2 C2         -4.9795    3.7215   51.5207 C.3     1  <0>        -0.1100
      3 C3         -4.4433    2.2890   51.4877 C.3     1  <0>        -0.1000
      4 H4         -4.1371    1.9924   52.4909 H       1  <0>         0.1400
      5 C5         -3.2586    2.2174   50.5591 C.2     1  <0>         0.5200
      6 O6         -2.4105    3.0838   50.5900 O.2     1  <0>        -0.4700
      7 N7         -3.1415    1.1904   49.6941 N.am    1  <0>        -0.6700
      8 C8         -2.0415    1.1238   48.8319 C.ar    1  <0>         0.2200
      9 C9         -1.0228    0.2118   49.0745 C.ar    1  <0>        -0.2300
     10 C10         0.0657    0.1455   48.2219 C.ar    1  <0>         0.1700
     11 F11         1.0557   -0.7425   48.4599 F       1  <0>        -0.1300
     12 C12         0.1409    0.9868   47.1261 C.ar    1  <0>        -0.2500
     13 C13        -0.8763    1.9006   46.8797 C.ar    1  <0>         0.2600
     14 N14        -0.7998    2.7501   45.7736 N.pl3   1  <0>        -0.7400
     15 C15         0.3615    3.6266   45.6021 C.3     1  <0>         0.0800
     16 C16         0.8290    3.5749   44.1463 C.3     1  <0>         0.4500
     17 F17        -0.2397    3.8940   43.3017 F       1  <0>        -0.1800
     18 F18         1.8648    4.4958   43.9560 F       1  <0>        -0.1700
     19 F19         1.2893    2.2874   43.8498 F       1  <0>        -0.1800
     20 C20        -1.9709    1.9651   47.7304 C.ar    1  <0>        -0.2000
     21 C21        -5.5232    1.3595   50.9967 C.2     1  <0>         0.4600
     22 O22        -6.1699    1.6484   50.0178 O.2     1  <0>        -0.4600
     23 O23        -5.7668    0.2109   51.6470 O.3     1  <0>        -0.3500
     24 C24        -7.0075   -0.4744   51.3324 C.3     1  <0>         0.0300
     25 H25        -5.3456    3.6923   53.6434 H       1  <0>         0.0600
     26 H26        -6.2851    4.9133   52.7520 H       1  <0>         0.0600
     27 H27        -6.7364    3.1945   52.6505 H       1  <0>         0.0800
     28 H28        -5.5370    3.9221   50.6058 H       1  <0>         0.0800
     29 H29        -4.1461    4.4197   51.5988 H       1  <0>         0.0800
     30 H30        -3.8197    0.4974   49.6694 H       1  <0>         0.4200
     31 H31        -1.0796   -0.4457   49.9293 H       1  <0>         0.1400
     32 H32         0.9910    0.9334   46.4621 H       1  <0>         0.1400
     33 H33        -1.5155    2.7596   45.1191 H       1  <0>         0.4100
     34 H34         0.0857    4.6494   45.8590 H       1  <0>         0.1100
     35 H35         1.1681    3.2929   46.2549 H       1  <0>         0.1100
     36 H36        -2.7624    2.6748   47.5404 H       1  <0>         0.1500
     37 H37        -7.0799   -1.3859   51.9260 H       1  <0>         0.1000
     38 H38        -7.8508    0.1768   51.5625 H       1  <0>         0.0600
     39 H39        -7.0236   -0.7288   50.2726 H       1  <0>         0.0600
@<TRIPOS>BOND
     1     1     2    1
     2     1    25    1
     3     1    26    1
     4     1    27    1
     5     2     3    1
     6     2    28    1
     7     2    29    1
     8     3     4    1
     9     3     5    1
    10     3    21    1
    11     5     6    2
    12     5     7   am
    13     7     8    1
    14     7    30    1
    15     8    20   ar
    16     8     9   ar
    17     9    10   ar
    18     9    31    1
    19    10    11    1
    20    10    12   ar
    21    12    13   ar
    22    12    32    1
    23    13    14    1
    24    13    20   ar
    25    14    15    1
    26    14    33    1
    27    15    16    1
    28    15    34    1
    29    15    35    1
    30    16    17    1
    31    16    18    1
    32    16    19    1
    33    20    36    1
    34    21    22    2
    35    21    23    1
    36    23    24    1
    37    24    37    1
    38    24    38    1
    39    24    39    1
@<TRIPOS>SUBSTRUCTURE
     1 <0>         1 TEMP              0 ****  ****    0 ROOT


##########                                Name:    ZINC000676564986
##########                DOCK_Rotatable_Bonds:                   5
##########                         Heavy_Atoms:                  25
##########                    Molecular_Weight:             347.444
##########                DOCK_Rotatable_Bonds:                   5
##########                       Formal_Charge:          -0.0100005
##########                     HBond_Acceptors:                   6
##########                        HBond_Donors:                   1
##########                         Heavy_Atoms:                  25
##########                          Grid_Score:          -29.601559
##########                     Grid_vdw_energy:          -28.155207
##########                      Grid_es_energy:           -1.446351
##########           Internal_energy_repulsive:            4.902383

@<TRIPOS>MOLECULE
ZINC000676564986
 42 45 1 0 0
SMALL
USER_CHARGES


@<TRIPOS>ATOM
      1 C1          1.5523    1.1885   44.5461 C.3     1  ZINC000676564986    0.0800
      2 N2          0.4461    1.2127   45.5063 N.pl3   1  ZINC000676564986   -0.4800
      3 C3         -0.7306    1.8861   45.3644 C.2     1  ZINC000676564986    0.2500
      4 N4         -1.4851    1.6874   46.4060 N.2     1  ZINC000676564986   -0.4600
      5 C5         -0.8423    0.8763   47.2802 C.ar    1  ZINC000676564986   -0.1100
      6 C6         -1.1546    0.3344   48.5384 C.ar    1  ZINC000676564986    0.5100
      7 N7         -2.3675    0.6083   49.1460 N.pl3   1  ZINC000676564986   -0.6900
      8 C8         -2.9079    1.9698   49.1218 C.3     1  ZINC000676564986    0.1700
      9 C9         -3.8644    2.1510   50.2722 C.ar    1  ZINC000676564986   -0.0800
     10 C10        -3.5052    2.9390   51.3505 C.ar    1  ZINC000676564986   -0.1100
     11 C11        -4.3790    3.1073   52.4063 C.ar    1  ZINC000676564986   -0.0700
     12 C12        -5.6207    2.4837   52.3845 C.ar    1  ZINC000676564986   -0.1300
     13 S13        -6.7393    2.6960   53.7292 S.3     1  ZINC000676564986   -0.0100
     14 C14        -8.2440    3.1398   52.9269 C.ar    1  ZINC000676564986   -0.1000
     15 C15        -8.2179    3.9401   51.7911 C.ar    1  ZINC000676564986   -0.1200
     16 C16        -9.3990    4.2854   51.1647 C.ar    1  ZINC000676564986   -0.1000
     17 C17       -10.6069    3.8359   51.6663 C.ar    1  ZINC000676564986   -0.1200
     18 C18       -10.6367    3.0394   52.7965 C.ar    1  ZINC000676564986   -0.1000
     19 C19        -9.4592    2.6857   53.4251 C.ar    1  ZINC000676564986   -0.1000
     20 C20        -5.9783    1.6926   51.2993 C.ar    1  ZINC000676564986   -0.0700
     21 C21        -5.1017    1.5334   50.2445 C.ar    1  ZINC000676564986   -0.1100
     22 N22        -0.2583   -0.4476   49.1314 N.ar    1  ZINC000676564986   -0.5900
     23 C23         0.9012   -0.7148   48.5590 C.ar    1  ZINC000676564986    0.3600
     24 N24         1.2368   -0.2293   47.3821 N.ar    1  ZINC000676564986   -0.5600
     25 C25         0.4022    0.5572   46.7109 C.ar    1  ZINC000676564986    0.3000
     26 H26         1.4089    0.3643   43.8474 H       1  ZINC000676564986    0.0800
     27 H27         1.5777    2.1299   43.9972 H       1  ZINC000676564986    0.0900
     28 H28         2.4933    1.0532   45.0793 H       1  ZINC000676564986    0.0900
     29 H29        -0.9973    2.4950   44.5133 H       1  ZINC000676564986    0.2200
     30 H30        -2.8598   -0.1011   49.5878 H       1  ZINC000676564986    0.4200
     31 H31        -2.0916    2.6864   49.2116 H       1  ZINC000676564986    0.0800
     32 H32        -3.4346    2.1351   48.1819 H       1  ZINC000676564986    0.0800
     33 H33        -2.5399    3.4231   51.3669 H       1  ZINC000676564986    0.1300
     34 H34        -4.0977    3.7225   53.2481 H       1  ZINC000676564986    0.1400
     35 H35        -7.2750    4.2918   51.3990 H       1  ZINC000676564986    0.1200
     36 H36        -9.3794    4.9076   50.2821 H       1  ZINC000676564986    0.1300
     37 H37       -11.5291    4.1079   51.1745 H       1  ZINC000676564986    0.1300
     38 H38       -11.5817    2.6902   53.1855 H       1  ZINC000676564986    0.1300
     39 H39        -9.4832    2.0634   54.3075 H       1  ZINC000676564986    0.1300
     40 H40        -6.9425    1.2065   51.2791 H       1  ZINC000676564986    0.1300
     41 H41        -5.3788    0.9188   49.4009 H       1  ZINC000676564986    0.1300
     42 H42         1.6008   -1.3551   49.0758 H       1  ZINC000676564986    0.2000
@<TRIPOS>BOND
     1     1     2    1
     2     1    26    1
     3     1    27    1
     4     1    28    1
     5     2    25    1
     6     2     3    1
     7     3     4    2
     8     3    29    1
     9     4     5    1
    10     5    25   ar
    11     5     6   ar
    12     6     7    1
    13     6    22   ar
    14     7     8    1
    15     7    30    1
    16     8     9    1
    17     8    31    1
    18     8    32    1
    19     9    21   ar
    20     9    10   ar
    21    10    11   ar
    22    10    33    1
    23    11    12   ar
    24    11    34    1
    25    12    13    1
    26    12    20   ar
    27    13    14    1
    28    14    19   ar
    29    14    15   ar
    30    15    16   ar
    31    15    35    1
    32    16    17   ar
    33    16    36    1
    34    17    18   ar
    35    17    37    1
    36    18    19   ar
    37    18    38    1
    38    19    39    1
    39    20    21   ar
    40    20    40    1
    41    21    41    1
    42    22    23   ar
    43    23    24   ar
    44    23    42    1
    45    24    25   ar
@<TRIPOS>SUBSTRUCTURE
     1 ZINC000676564986        1 TEMP              0 ****  ****    0 ROOT


##########                                Name:    ZINC000883773972
##########                DOCK_Rotatable_Bonds:                   4
##########                         Heavy_Atoms:                  23
##########                    Molecular_Weight:             343.447
##########                DOCK_Rotatable_Bonds:                   4
##########                       Formal_Charge:                0.01
##########                     HBond_Acceptors:                   8
##########                        HBond_Donors:                   1
##########                         Heavy_Atoms:                  23
##########                          Grid_Score:          -29.601135
##########                     Grid_vdw_energy:          -28.692541
##########                      Grid_es_energy:           -0.908593
##########           Internal_energy_repulsive:            4.919725

@<TRIPOS>MOLECULE
ZINC000883773972
 48 50 1 0 0
SMALL
USER_CHARGES


@<TRIPOS>ATOM
      1 C1         -8.8526    2.7438   55.4169 C.3     1  ZINC000883773972   -0.1700
      2 C2         -8.8433    3.4458   54.0834 C.2     1  ZINC000883773972    0.5300
      3 O3         -9.7405    4.2085   53.7933 O.2     1  ZINC000883773972   -0.5400
      4 N4         -7.8379    3.2260   53.2131 N.am    1  ZINC000883773972   -0.6200
      5 C5         -7.6789    3.8322   51.8810 C.3     1  ZINC000883773972    0.1100
      6 C6         -6.1654    3.9463   51.6344 C.3     1  ZINC000883773972   -0.1100
      7 H7         -5.8076    4.9667   51.7721 H       1  ZINC000883773972    0.1000
      8 C8         -5.8357    3.4084   50.2319 C.3     1  ZINC000883773972    0.1300
      9 N9         -4.7024    2.4837   50.3979 N.am    1  ZINC000883773972   -0.6400
     10 C10        -3.7267    2.2362   49.5014 C.2     1  ZINC000883773972    0.7300
     11 O11        -3.7306    2.8042   48.4264 O.2     1  ZINC000883773972   -0.5800
     12 N12        -2.7471    1.3590   49.7967 N.am    1  ZINC000883773972   -0.7400
     13 C13        -1.6877    1.0886   48.8217 C.3     1  ZINC000883773972    0.1800
     14 H14        -2.0843    1.2097   47.8136 H       1  ZINC000883773972    0.1100
     15 C15        -0.5397    2.0708   49.0356 C.3     1  ZINC000883773972   -0.1500
     16 C16         0.4631    1.9842   47.8887 C.3     1  ZINC000883773972   -0.1000
     17 C17         1.2202    0.6558   47.9550 C.3     1  ZINC000883773972   -0.5600
     18 H18         1.6986    0.5570   48.9294 H       1  ZINC000883773972    0.1400
     19 C19         2.2839    0.6174   46.8560 C.3     1  ZINC000883773972   -0.1400
     20 S20         0.0442   -0.7077   47.7141 S.o2    1  ZINC000883773972    2.4200
     21 O21        -0.5698   -0.5592   46.4412 O.2     1  ZINC000883773972   -0.9200
     22 O22         0.6937   -1.9303   48.0344 O.2     1  ZINC000883773972   -0.9300
     23 C23        -1.1861   -0.3460   49.0012 C.3     1  ZINC000883773972   -0.6300
     24 C24        -4.8426    1.8822   51.7342 C.3     1  ZINC000883773972    0.1100
     25 C25        -5.5125    2.9633   52.6370 C.3     1  ZINC000883773972   -0.1100
     26 H26        -4.7910    3.4441   53.2976 H       1  ZINC000883773972    0.1000
     27 C27        -6.6808    2.3379   53.4117 C.3     1  ZINC000883773972    0.1100
     28 H28        -9.7364    3.0445   55.9796 H       1  ZINC000883773972    0.0900
     29 H29        -8.8716    1.6654   55.2597 H       1  ZINC000883773972    0.0900
     30 H30        -7.9567    3.0138   55.9759 H       1  ZINC000883773972    0.0900
     31 H31        -8.1345    3.1948   51.1232 H       1  ZINC000883773972    0.0800
     32 H32        -8.1366    4.8213   51.8630 H       1  ZINC000883773972    0.0900
     33 H33        -6.6953    2.8772   49.8234 H       1  ZINC000883773972    0.0700
     34 H34        -5.5550    4.2298   49.5726 H       1  ZINC000883773972    0.0900
     35 H35        -2.7433    0.9067   50.6549 H       1  ZINC000883773972    0.4000
     36 H36        -0.9387    3.0837   49.0881 H       1  ZINC000883773972    0.0900
     37 H37        -0.0351    1.8351   49.9725 H       1  ZINC000883773972    0.0800
     38 H38        -0.0670    2.0514   46.9387 H       1  ZINC000883773972    0.0900
     39 H39         1.1720    2.8088   47.9649 H       1  ZINC000883773972    0.0900
     40 H40         2.9835    1.4409   46.9986 H       1  ZINC000883773972    0.0800
     41 H41         2.8222   -0.3292   46.9044 H       1  ZINC000883773972    0.0700
     42 H42         1.8037    0.7129   45.8821 H       1  ZINC000883773972    0.0800
     43 H43        -0.7280   -0.4542   49.9844 H       1  ZINC000883773972    0.1400
     44 H44        -2.0238   -1.0374   48.9097 H       1  ZINC000883773972    0.1400
     45 H45        -5.4681    0.9913   51.6797 H       1  ZINC000883773972    0.0800
     46 H46        -3.8613    1.6271   52.1345 H       1  ZINC000883773972    0.0800
     47 H47        -6.4268    2.2539   54.4683 H       1  ZINC000883773972    0.0900
     48 H48        -6.9166    1.3549   53.0038 H       1  ZINC000883773972    0.0700
@<TRIPOS>BOND
     1     1     2    1
     2     1    28    1
     3     1    29    1
     4     1    30    1
     5     2     3    2
     6     2     4   am
     7     4    27    1
     8     4     5    1
     9     5     6    1
    10     5    31    1
    11     5    32    1
    12     6     7    1
    13     6    25    1
    14     6     8    1
    15     8     9    1
    16     8    33    1
    17     8    34    1
    18     9    10   am
    19     9    24    1
    20    10    11    2
    21    10    12   am
    22    12    13    1
    23    12    35    1
    24    13    14    1
    25    13    23    1
    26    13    15    1
    27    15    16    1
    28    15    36    1
    29    15    37    1
    30    16    17    1
    31    16    38    1
    32    16    39    1
    33    17    18    1
    34    17    19    1
    35    17    20    1
    36    19    40    1
    37    19    41    1
    38    19    42    1
    39    20    21    2
    40    20    22    2
    41    20    23    1
    42    23    43    1
    43    23    44    1
    44    24    25    1
    45    24    45    1
    46    24    46    1
    47    25    26    1
    48    25    27    1
    49    27    47    1
    50    27    48    1
@<TRIPOS>SUBSTRUCTURE
     1 ZINC000883773972        1 TEMP              0 ****  ****    0 ROOT


##########                                Name:    ZINC000821442454
##########                DOCK_Rotatable_Bonds:                   6
##########                         Heavy_Atoms:                  26
##########                    Molecular_Weight:             398.873
##########                DOCK_Rotatable_Bonds:                   6
##########                       Formal_Charge:          -0.0399996
##########                     HBond_Acceptors:                  11
##########                        HBond_Donors:                   2
##########                         Heavy_Atoms:                  26
##########                          Grid_Score:          -29.576231
##########                     Grid_vdw_energy:          -29.225405
##########                      Grid_es_energy:           -0.350827
##########           Internal_energy_repulsive:           10.072262

@<TRIPOS>MOLECULE
ZINC000821442454
 45 47 1 0 0
SMALL
USER_CHARGES


@<TRIPOS>ATOM
      1 C1         -5.7059    4.3414   56.2096 C.3     1  ZINC000821442454   -0.1500
      2 C2         -5.8047    3.4670   54.9579 C.3     1  ZINC000821442454   -0.6300
      3 S3         -6.0225    4.5223   53.4987 S.o2    1  ZINC000821442454    2.6000
      4 O4         -7.2976    5.1488   53.5222 O.2     1  ZINC000821442454   -0.9500
      5 O5         -4.8423    5.2721   53.2449 O.2     1  ZINC000821442454   -0.9500
      6 N6         -6.1123    3.4608   52.2308 N.am    1  ZINC000821442454   -1.0000
      7 C7         -7.1701    2.4423   52.1808 C.3     1  ZINC000821442454    0.1100
      8 C8         -6.5220    1.0673   51.9901 C.3     1  ZINC000821442454   -0.1300
      9 C9         -5.6214    1.0994   50.7533 C.3     1  ZINC000821442454   -0.1100
     10 C10        -4.5110    2.1330   50.9553 C.3     1  ZINC000821442454   -0.1200
     11 H11        -3.9331    1.8772   51.8435 H       1  ZINC000821442454    0.1100
     12 C12        -3.6054    2.1404   49.7508 C.2     1  ZINC000821442454    0.5300
     13 O13        -3.9552    2.6986   48.7325 O.2     1  ZINC000821442454   -0.5100
     14 N14        -2.4067    1.5267   49.8051 N.am    1  ZINC000821442454   -0.6700
     15 C15        -1.5661    1.5336   48.6872 C.ar    1  ZINC000821442454    0.1800
     16 C16        -1.2125    2.7381   48.0925 C.ar    1  ZINC000821442454   -0.1200
     17 C17        -0.3833    2.7474   46.9904 C.ar    1  ZINC000821442454   -0.0500
     18 C18         0.1002    1.5475   46.4730 C.ar    1  ZINC000821442454   -0.0300
     19 C19         0.9929    1.5558   45.2873 C.2     1  ZINC000821442454    0.2200
     20 N20         1.7993    0.5867   44.9021 N.2     1  ZINC000821442454   -0.2900
     21 N21         2.4014    0.9769   43.8315 N.pl3   1  ZINC000821442454   -0.2200
     22 N22         2.0021    2.1620   43.5262 N.2     1  ZINC000821442454   -0.0400
     23 N23         1.1317    2.5478   44.3963 N.2     1  ZINC000821442454   -0.2700
     24 C24        -0.2552    0.3394   47.0704 C.ar    1  ZINC000821442454   -0.0500
     25 C25        -1.0806    0.3346   48.1759 C.ar    1  ZINC000821442454   -0.0800
     26 Cl26       -1.5240   -1.1694   48.9210 Cl      1  ZINC000821442454   -0.0500
     27 C27        -5.1397    3.5236   51.1314 C.3     1  ZINC000821442454    0.1400
     28 H28        -4.8529    5.0136   56.1167 H       1  ZINC000821442454    0.0700
     29 H29        -6.6194    4.9263   56.3171 H       1  ZINC000821442454    0.0700
     30 H30        -5.5751    3.7073   57.0863 H       1  ZINC000821442454    0.0800
     31 H31        -4.8912    2.8821   54.8504 H       1  ZINC000821442454    0.1300
     32 H32        -6.6578    2.7948   55.0508 H       1  ZINC000821442454    0.1300
     33 H33        -7.7335    2.4544   53.1138 H       1  ZINC000821442454    0.1000
     34 H34        -7.8385    2.6502   51.3452 H       1  ZINC000821442454    0.0700
     35 H35        -5.9251    0.8216   52.8685 H       1  ZINC000821442454    0.0700
     36 H36        -7.2987    0.3146   51.8552 H       1  ZINC000821442454    0.0800
     37 H37        -5.1781    0.1153   50.6011 H       1  ZINC000821442454    0.0700
     38 H38        -6.2142    1.3694   49.8793 H       1  ZINC000821442454    0.0800
     39 H39        -2.1269    1.0803   50.6196 H       1  ZINC000821442454    0.4200
     40 H40        -1.5876    3.6682   48.4934 H       1  ZINC000821442454    0.1600
     41 H41        -0.1093    3.6843   46.5285 H       1  ZINC000821442454    0.1500
     42 H42         3.0534    0.4590   43.3340 H       1  ZINC000821442454    0.4800
     43 H43         0.1184   -0.5917   46.6708 H       1  ZINC000821442454    0.1500
     44 H44        -5.6409    3.8175   50.2092 H       1  ZINC000821442454    0.0800
     45 H45        -4.3622    4.2480   51.3740 H       1  ZINC000821442454    0.1000
@<TRIPOS>BOND
     1     1     2    1
     2     1    28    1
     3     1    29    1
     4     1    30    1
     5     2     3    1
     6     2    31    1
     7     2    32    1
     8     3     4    2
     9     3     5    2
    10     3     6   am
    11     6    27    1
    12     6     7    1
    13     7     8    1
    14     7    33    1
    15     7    34    1
    16     8     9    1
    17     8    35    1
    18     8    36    1
    19     9    10    1
    20     9    37    1
    21     9    38    1
    22    10    11    1
    23    10    12    1
    24    10    27    1
    25    12    13    2
    26    12    14   am
    27    14    15    1
    28    14    39    1
    29    15    25   ar
    30    15    16   ar
    31    16    17   ar
    32    16    40    1
    33    17    18   ar
    34    17    41    1
    35    18    19    1
    36    18    24   ar
    37    19    23    1
    38    19    20    2
    39    20    21    1
    40    21    22    1
    41    21    42    1
    42    22    23    2
    43    24    25   ar
    44    24    43    1
    45    25    26    1
    46    27    44    1
    47    27    45    1
@<TRIPOS>SUBSTRUCTURE
     1 ZINC000821442454        1 TEMP              0 ****  ****    0 ROOT


##########                                Name:    ZINC001326371752
##########                DOCK_Rotatable_Bonds:                   5
##########                         Heavy_Atoms:                  25
##########                    Molecular_Weight:             360.397
##########                DOCK_Rotatable_Bonds:                   5
##########                       Formal_Charge:           0.0199999
##########                     HBond_Acceptors:                  10
##########                        HBond_Donors:                   0
##########                         Heavy_Atoms:                  25
##########                          Grid_Score:          -29.572805
##########                     Grid_vdw_energy:          -29.698290
##########                      Grid_es_energy:            0.125484
##########           Internal_energy_repulsive:            8.340404

@<TRIPOS>MOLECULE
ZINC001326371752
 41 44 1 0 0
SMALL
USER_CHARGES


@<TRIPOS>ATOM
      1 C1          1.3837    6.2583   41.5877 C.3     1  ZINC001326371752    0.0300
      2 O2          2.0254    5.4786   42.5989 O.3     1  ZINC001326371752   -0.3800
      3 C3          1.3606    4.2484   42.8937 C.3     1  ZINC001326371752    0.0500
      4 C4          2.1314    3.5005   43.9833 C.3     1  ZINC001326371752    0.1200
      5 N5          1.4499    2.2394   44.2855 N.pl3   1  ZINC001326371752   -0.2800
      6 N6          1.6433    1.1110   43.6891 N.2     1  ZINC001326371752   -0.0800
      7 N7          0.8810    0.2014   44.1957 N.2     1  ZINC001326371752   -0.2500
      8 C8          0.1550    0.7486   45.1639 C.2     1  ZINC001326371752   -0.0400
      9 C9          0.5173    2.0533   45.2366 C.2     1  ZINC001326371752    0.0000
     10 C10        -0.0534    3.0478   46.2113 C.3     1  ZINC001326371752   -0.0600
     11 C11        -1.3717    2.4931   46.7673 C.3     1  ZINC001326371752    0.1200
     12 N12        -1.1891    1.0787   47.1250 N.am    1  ZINC001326371752   -0.6100
     13 C13        -1.2950    0.6718   48.4055 C.2     1  ZINC001326371752    0.6100
     14 O14        -1.1412   -0.5026   48.6854 O.2     1  ZINC001326371752   -0.5100
     15 C15        -1.5958    1.6446   49.4622 C.2     1  ZINC001326371752   -0.3400
     16 C16        -0.6128    2.5324   49.9144 C.2     1  ZINC001326371752    0.2400
     17 N17        -0.9186    3.3937   50.8661 N.2     1  ZINC001326371752   -0.5100
     18 C18        -2.1294    3.4419   51.4055 C.2     1  ZINC001326371752    0.2900
     19 S19        -2.7660    4.4590   52.6413 S.3     1  ZINC001326371752    0.2500
     20 C20        -4.3833    3.7391   52.6088 C.2     1  ZINC001326371752   -0.2100
     21 C21        -4.3304    2.7970   51.6825 C.2     1  ZINC001326371752    0.0500
     22 N22        -3.1385    2.6161   51.0234 N.am    1  ZINC001326371752   -0.4600
     23 C23        -2.8838    1.7062   50.0374 C.2     1  ZINC001326371752    0.5500
     24 O24        -3.7612    0.9493   49.6596 O.2     1  ZINC001326371752   -0.5000
     25 C25        -0.8845    0.1143   46.0528 C.3     1  ZINC001326371752    0.2000
     26 H26         1.9493    7.1752   41.4224 H       1  ZINC001326371752    0.0900
     27 H27         1.3400    5.6861   40.6609 H       1  ZINC001326371752    0.0500
     28 H28         0.3724    6.5079   41.9086 H       1  ZINC001326371752    0.0500
     29 H29         0.3489    4.4565   43.2421 H       1  ZINC001326371752    0.0600
     30 H30         1.3161    3.6348   41.9939 H       1  ZINC001326371752    0.0600
     31 H31         3.1431    3.2925   43.6351 H       1  ZINC001326371752    0.1200
     32 H32         2.1759    4.1141   44.8831 H       1  ZINC001326371752    0.1200
     33 H33         0.6508    3.2043   47.0284 H       1  ZINC001326371752    0.0900
     34 H34        -0.2408    3.9929   45.7015 H       1  ZINC001326371752    0.1000
     35 H35        -1.6597    3.0585   47.6535 H       1  ZINC001326371752    0.1100
     36 H36        -2.1511    2.5794   46.0102 H       1  ZINC001326371752    0.0800
     37 H37         0.3807    2.5126   49.4912 H       1  ZINC001326371752    0.1900
     38 H38        -5.2330    4.0116   53.2172 H       1  ZINC001326371752    0.2200
     39 H39        -5.1940    2.1908   51.4522 H       1  ZINC001326371752    0.2000
     40 H40        -1.7842   -0.0932   45.4735 H       1  ZINC001326371752    0.1000
     41 H41        -0.4976   -0.8094   46.4832 H       1  ZINC001326371752    0.1000
@<TRIPOS>BOND
     1     1     2    1
     2     1    26    1
     3     1    27    1
     4     1    28    1
     5     2     3    1
     6     3     4    1
     7     3    29    1
     8     3    30    1
     9     4     5    1
    10     4    31    1
    11     4    32    1
    12     5     9    1
    13     5     6    1
    14     6     7    2
    15     7     8    1
    16     8    25    1
    17     8     9    2
    18     9    10    1
    19    10    11    1
    20    10    33    1
    21    10    34    1
    22    11    12    1
    23    11    35    1
    24    11    36    1
    25    12    13   am
    26    12    25    1
    27    13    14    2
    28    13    15    1
    29    15    23    1
    30    15    16    2
    31    16    17    1
    32    16    37    1
    33    17    18    2
    34    18    22    1
    35    18    19    1
    36    19    20    1
    37    20    21    2
    38    20    38    1
    39    21    22    1
    40    21    39    1
    41    22    23   am
    42    23    24    2
    43    25    40    1
    44    25    41    1
@<TRIPOS>SUBSTRUCTURE
     1 ZINC001326371752        1 TEMP              0 ****  ****    0 ROOT


##########                                Name:    ZINC001061022329
##########                DOCK_Rotatable_Bonds:                   7
##########                         Heavy_Atoms:                  27
##########                    Molecular_Weight:             374.523
##########                DOCK_Rotatable_Bonds:                   7
##########                       Formal_Charge:           0.0800005
##########                     HBond_Acceptors:                   5
##########                        HBond_Donors:                   0
##########                         Heavy_Atoms:                  27
##########                          Grid_Score:          -29.568817
##########                     Grid_vdw_energy:          -28.190844
##########                      Grid_es_energy:           -1.377975
##########           Internal_energy_repulsive:           35.360714

@<TRIPOS>MOLECULE
ZINC001061022329
 61 64 1 0 0
SMALL
USER_CHARGES


@<TRIPOS>ATOM
      1 C1          2.9897    5.9204   42.5589 C.3     1  ZINC001061022329   -0.1500
      2 C2          1.9790    4.7773   42.6722 C.3     1  ZINC001061022329   -0.1200
      3 C3          2.6981    3.5032   43.1198 C.3     1  ZINC001061022329    0.0800
      4 H4          3.4630    3.2417   42.3886 H       1  ZINC001061022329    0.0600
      5 C5          3.3541    3.7394   44.4817 C.3     1  ZINC001061022329   -0.1800
      6 O6          1.7544    2.4352   43.2244 O.3     1  ZINC001061022329   -0.3500
      7 C7          0.8225    2.5860   44.2972 C.3     1  ZINC001061022329    0.0500
      8 C8          1.2937    1.7909   45.4874 C.2     1  ZINC001061022329    0.5200
      9 O9          2.1572    0.9501   45.3517 O.2     1  ZINC001061022329   -0.5100
     10 N10         0.7556    2.0141   46.7027 N.am    1  ZINC001061022329   -0.6100
     11 C11         1.2102    1.2481   47.8706 C.3     1  ZINC001061022329    0.1100
     12 C12        -0.0033    0.5726   48.5203 C.3     1  ZINC001061022329   -0.1200
     13 C13        -1.0793    1.6234   48.7828 C.3     1  ZINC001061022329   -0.0900
     14 C14        -2.2502    1.1064   49.6299 C.3     1  ZINC001061022329    0.1200
     15 N15        -2.1725    2.3993   50.3390 N.am    1  ZINC001061022329   -0.6400
     16 C16        -3.0461    3.1403   51.0491 C.2     1  ZINC001061022329    0.5400
     17 O17        -2.6944    4.1962   51.5312 O.2     1  ZINC001061022329   -0.5300
     18 C18        -4.4601    2.6567   51.2442 C.3     1  ZINC001061022329   -0.0900
     19 H19        -4.4459    1.6214   51.5849 H       1  ZINC001061022329    0.1000
     20 C20        -5.2172    2.7467   49.9174 C.3     1  ZINC001061022329   -0.1000
     21 C21        -6.4238    3.6805   50.0770 C.3     1  ZINC001061022329   -0.0600
     22 H22        -6.9482    3.7997   49.1290 H       1  ZINC001061022329    0.0800
     23 C23        -5.9119    5.0212   50.5828 C.2     1  ZINC001061022329   -0.1800
     24 C24        -5.2534    4.9430   51.7367 C.2     1  ZINC001061022329   -0.1300
     25 C25        -5.1587    3.5306   52.2937 C.3     1  ZINC001061022329   -0.0400
     26 H26        -4.6168    3.5235   53.2393 H       1  ZINC001061022329    0.0900
     27 C27        -6.5893    3.0070   52.4824 C.3     1  ZINC001061022329   -0.1100
     28 C28        -7.3549    3.0875   51.1434 C.3     1  ZINC001061022329   -0.1100
     29 C29        -0.7541    2.5544   49.9591 C.3     1  ZINC001061022329    0.1100
     30 C30        -1.5171    2.3635   47.5214 C.3     1  ZINC001061022329   -0.1100
     31 C31        -0.2894    3.0310   46.8793 C.3     1  ZINC001061022329    0.1100
     32 H32         3.4577    6.0890   43.5288 H       1  ZINC001061022329    0.0500
     33 H33         3.7539    5.6584   41.8273 H       1  ZINC001061022329    0.0600
     34 H34         2.4774    6.8281   42.2401 H       1  ZINC001061022329    0.0600
     35 H35         1.2147    5.0393   43.4039 H       1  ZINC001061022329    0.0800
     36 H36         1.5109    4.6087   41.7024 H       1  ZINC001061022329    0.0700
     37 H37         3.8663    2.8317   44.8005 H       1  ZINC001061022329    0.0600
     38 H38         4.0739    4.5539   44.4019 H       1  ZINC001061022329    0.0700
     39 H39         2.5892    4.0008   45.2129 H       1  ZINC001061022329    0.0700
     40 H40         0.7492    3.6389   44.5695 H       1  ZINC001061022329    0.0800
     41 H41        -0.1560    2.2231   43.9821 H       1  ZINC001061022329    0.0800
     42 H42         1.9251    0.4886   47.5538 H       1  ZINC001061022329    0.0900
     43 H43         1.6817    1.9203   48.5877 H       1  ZINC001061022329    0.0800
     44 H44        -0.3966   -0.1922   47.8506 H       1  ZINC001061022329    0.0800
     45 H45         0.2960    0.1142   49.4629 H       1  ZINC001061022329    0.0800
     46 H46        -3.1731    0.9685   49.0667 H       1  ZINC001061022329    0.0800
     47 H47        -1.9974    0.2478   50.2520 H       1  ZINC001061022329    0.0900
     48 H48        -4.5539    3.1390   49.1466 H       1  ZINC001061022329    0.0700
     49 H49        -5.5622    1.7539   49.6282 H       1  ZINC001061022329    0.0700
     50 H50        -6.0685    5.9499   50.0545 H       1  ZINC001061022329    0.1200
     51 H51        -4.8255    5.8024   52.2315 H       1  ZINC001061022329    0.1200
     52 H52        -6.5554    1.9684   52.8113 H       1  ZINC001061022329    0.0700
     53 H53        -7.1003    3.6092   53.2336 H       1  ZINC001061022329    0.0700
     54 H54        -8.2261    3.7318   51.2615 H       1  ZINC001061022329    0.0700
     55 H55        -7.6790    2.0890   50.8500 H       1  ZINC001061022329    0.0700
     56 H56        -0.0567    2.1261   50.6791 H       1  ZINC001061022329    0.0900
     57 H57        -0.4879    3.5675   49.6576 H       1  ZINC001061022329    0.0800
     58 H58        -1.9596    1.6570   46.8192 H       1  ZINC001061022329    0.0800
     59 H59        -2.2503    3.1267   47.7825 H       1  ZINC001061022329    0.0800
     60 H60         0.0744    3.8277   47.5280 H       1  ZINC001061022329    0.0700
     61 H61        -0.5638    3.4439   45.9086 H       1  ZINC001061022329    0.1000
@<TRIPOS>BOND
     1     1     2    1
     2     1    32    1
     3     1    33    1
     4     1    34    1
     5     2     3    1
     6     2    35    1
     7     2    36    1
     8     3     4    1
     9     3     5    1
    10     3     6    1
    11     5    37    1
    12     5    38    1
    13     5    39    1
    14     6     7    1
    15     7     8    1
    16     7    40    1
    17     7    41    1
    18     8     9    2
    19     8    10   am
    20    10    31    1
    21    10    11    1
    22    11    12    1
    23    11    42    1
    24    11    43    1
    25    12    13    1
    26    12    44    1
    27    12    45    1
    28    13    29    1
    29    13    14    1
    30    13    30    1
    31    14    15    1
    32    14    46    1
    33    14    47    1
    34    15    16   am
    35    15    29    1
    36    16    17    2
    37    16    18    1
    38    18    19    1
    39    18    25    1
    40    18    20    1
    41    20    21    1
    42    20    48    1
    43    20    49    1
    44    21    22    1
    45    21    28    1
    46    21    23    1
    47    23    24    2
    48    23    50    1
    49    24    25    1
    50    24    51    1
    51    25    26    1
    52    25    27    1
    53    27    28    1
    54    27    52    1
    55    27    53    1
    56    28    54    1
    57    28    55    1
    58    29    56    1
    59    29    57    1
    60    30    31    1
    61    30    58    1
    62    30    59    1
    63    31    60    1
    64    31    61    1
@<TRIPOS>SUBSTRUCTURE
     1 ZINC001061022329        1 TEMP              0 ****  ****    0 ROOT


##########                                Name:    ZINC000466160459
##########                DOCK_Rotatable_Bonds:                   9
##########                         Heavy_Atoms:                  30
##########                    Molecular_Weight:             420.512
##########                DOCK_Rotatable_Bonds:                   9
##########                       Formal_Charge:          -0.0300007
##########                     HBond_Acceptors:                  10
##########                        HBond_Donors:                   2
##########                         Heavy_Atoms:                  30
##########                          Grid_Score:          -29.560612
##########                     Grid_vdw_energy:          -29.931513
##########                      Grid_es_energy:            0.370902
##########           Internal_energy_repulsive:           98.967041

@<TRIPOS>MOLECULE
ZINC000466160459
 62 64 1 0 0
SMALL
USER_CHARGES


@<TRIPOS>ATOM
      1 C1          4.0362   -0.0028   44.0412 C.3     1  ZINC000466160459    0.0300
      2 O2          3.5541    0.1784   45.3742 O.3     1  ZINC000466160459   -0.3900
      3 C3          4.3378   -0.4813   46.3704 C.3     1  ZINC000466160459    0.0500
      4 C4          3.7330   -0.2194   47.7512 C.3     1  ZINC000466160459    0.1200
      5 N5          2.3617   -0.7335   47.7891 N.am    1  ZINC000466160459   -0.7300
      6 C6          1.4428   -0.1446   48.5797 C.2     1  ZINC000466160459    0.5200
      7 O7          1.7508    0.8119   49.2589 O.2     1  ZINC000466160459   -0.5200
      8 C8          0.0326   -0.6746   48.6201 C.3     1  ZINC000466160459   -0.1300
      9 H9         -0.0005   -1.5744   49.2344 H       1  ZINC000466160459    0.1100
     10 C10        -0.4284   -1.0087   47.1995 C.3     1  ZINC000466160459   -0.1000
     11 C11        -0.3504    0.2465   46.3276 C.3     1  ZINC000466160459   -0.1500
     12 C12        -1.2832    1.3191   46.8989 C.3     1  ZINC000466160459    0.1600
     13 H13        -2.3170    0.9820   46.8236 H       1  ZINC000466160459    0.0700
     14 C14        -1.1097    2.6207   46.1136 C.3     1  ZINC000466160459   -0.1400
     15 N15        -0.9392    1.5421   48.3098 N.am    1  ZINC000466160459   -0.6200
     16 C16        -0.6690    2.7824   48.7629 C.2     1  ZINC000466160459    0.7100
     17 O17        -0.7087    3.7297   48.0019 O.2     1  ZINC000466160459   -0.5500
     18 N18        -0.3549    2.9724   50.0597 N.am    1  ZINC000466160459   -0.7300
     19 C19        -0.0612    4.3205   50.5523 C.3     1  ZINC000466160459    0.1600
     20 H20        -0.6687    5.0446   50.0095 H       1  ZINC000466160459    0.1300
     21 C21         1.4209    4.6316   50.3297 C.3     1  ZINC000466160459   -0.1400
     22 C22         2.2456    3.7888   51.3101 C.3     1  ZINC000466160459   -0.1400
     23 C23         1.9725    4.2835   52.7310 C.3     1  ZINC000466160459    0.1100
     24 N24         0.5381    4.3589   52.9781 N.am    1  ZINC000466160459   -0.5200
     25 C25         0.1018    4.3930   54.3096 C.2     1  ZINC000466160459    0.2800
     26 N26        -0.8789    3.6845   54.8177 N.2     1  ZINC000466160459   -0.2600
     27 N27        -0.9953    4.0103   56.1751 N.pl3   1  ZINC000466160459   -0.3800
     28 C28        -1.9667    3.4459   57.1153 C.3     1  ZINC000466160459    0.1000
     29 C29        -0.0557    4.9347   56.4653 C.2     1  ZINC000466160459    0.0700
     30 C30         0.6415    5.1867   55.3343 C.2     1  ZINC000466160459   -0.2900
     31 C31        -0.3833    4.3975   52.0171 C.2     1  ZINC000466160459    0.4900
     32 O32        -1.5473    4.5014   52.3418 O.2     1  ZINC000466160459   -0.4700
     33 C33        -0.8957    0.3872   49.2181 C.3     1  ZINC000466160459    0.1200
     34 H34         3.3874    0.5286   43.3449 H       1  ZINC000466160459    0.0900
     35 H35         5.0500    0.3901   43.9650 H       1  ZINC000466160459    0.0400
     36 H36         4.0388   -1.0650   43.7971 H       1  ZINC000466160459    0.0400
     37 H37         4.3464   -1.5535   46.1749 H       1  ZINC000466160459    0.0600
     38 H38         5.3581   -0.0987   46.3423 H       1  ZINC000466160459    0.0700
     39 H39         4.3307   -0.7227   48.5112 H       1  ZINC000466160459    0.0800
     40 H40         3.7245    0.8528   47.9468 H       1  ZINC000466160459    0.0800
     41 H41         2.1150   -1.4978   47.2450 H       1  ZINC000466160459    0.4000
     42 H42         0.2158   -1.7821   46.7811 H       1  ZINC000466160459    0.0700
     43 H43        -1.4569   -1.3686   47.2268 H       1  ZINC000466160459    0.0700
     44 H44         0.6732    0.6212   46.3200 H       1  ZINC000466160459    0.1000
     45 H45        -0.6565    0.0025   45.3103 H       1  ZINC000466160459    0.0700
     46 H46        -1.2587    2.4269   45.0514 H       1  ZINC000466160459    0.0400
     47 H47        -1.8423    3.3518   46.4557 H       1  ZINC000466160459    0.0800
     48 H48        -0.1047    3.0109   46.2744 H       1  ZINC000466160459    0.0600
     49 H49        -0.3233    2.2166   50.6669 H       1  ZINC000466160459    0.3900
     50 H50         1.6989    4.3805   49.3061 H       1  ZINC000466160459    0.0900
     51 H51         1.6049    5.6904   50.5112 H       1  ZINC000466160459    0.0900
     52 H52         1.9558    2.7414   51.2254 H       1  ZINC000466160459    0.0700
     53 H53         3.3061    3.8967   51.0827 H       1  ZINC000466160459    0.1000
     54 H54         2.4254    3.5958   53.4452 H       1  ZINC000466160459    0.0900
     55 H55         2.4126    5.2724   52.8590 H       1  ZINC000466160459    0.0800
     56 H56        -1.5442    2.5574   57.5847 H       1  ZINC000466160459    0.0700
     57 H57        -2.2022    4.1845   57.8816 H       1  ZINC000466160459    0.0900
     58 H58        -2.8765    3.1757   56.5794 H       1  ZINC000466160459    0.0900
     59 H59         0.1123    5.3893   57.4305 H       1  ZINC000466160459    0.1800
     60 H60         1.4628    5.8811   55.2350 H       1  ZINC000466160459    0.1500
     61 H61        -1.8980   -0.0259   49.3321 H       1  ZINC000466160459    0.0900
     62 H62        -0.5148    0.7009   50.1900 H       1  ZINC000466160459    0.0700
@<TRIPOS>BOND
     1     1     2    1
     2     1    34    1
     3     1    35    1
     4     1    36    1
     5     2     3    1
     6     3     4    1
     7     3    37    1
     8     3    38    1
     9     4     5    1
    10     4    39    1
    11     4    40    1
    12     5     6   am
    13     5    41    1
    14     6     7    2
    15     6     8    1
    16     8     9    1
    17     8    33    1
    18     8    10    1
    19    10    11    1
    20    10    42    1
    21    10    43    1
    22    11    12    1
    23    11    44    1
    24    11    45    1
    25    12    13    1
    26    12    14    1
    27    12    15    1
    28    14    46    1
    29    14    47    1
    30    14    48    1
    31    15    16   am
    32    15    33    1
    33    16    17    2
    34    16    18   am
    35    18    19    1
    36    18    49    1
    37    19    20    1
    38    19    31    1
    39    19    21    1
    40    21    22    1
    41    21    50    1
    42    21    51    1
    43    22    23    1
    44    22    52    1
    45    22    53    1
    46    23    24    1
    47    23    54    1
    48    23    55    1
    49    24    25    1
    50    24    31   am
    51    25    30    1
    52    25    26    2
    53    26    27    1
    54    27    28    1
    55    27    29    1
    56    28    56    1
    57    28    57    1
    58    28    58    1
    59    29    30    2
    60    29    59    1
    61    30    60    1
    62    31    32    2
    63    33    61    1
    64    33    62    1
@<TRIPOS>SUBSTRUCTURE
     1 ZINC000466160459        1 TEMP              0 ****  ****    0 ROOT


##########                                Name:    ZINC000284209281
##########                DOCK_Rotatable_Bonds:                   8
##########                         Heavy_Atoms:                  26
##########                    Molecular_Weight:             353.424
##########                DOCK_Rotatable_Bonds:                   8
##########                       Formal_Charge:          0.00999954
##########                     HBond_Acceptors:                   7
##########                        HBond_Donors:                   1
##########                         Heavy_Atoms:                  26
##########                          Grid_Score:          -29.536621
##########                     Grid_vdw_energy:          -26.769089
##########                      Grid_es_energy:           -2.767531
##########           Internal_energy_repulsive:           12.974920

@<TRIPOS>MOLECULE
ZINC000284209281
 49 51 1 0 0
SMALL
USER_CHARGES


@<TRIPOS>ATOM
      1 O1          1.8548    3.6153   46.9696 O.2     1  <0>        -0.5100
      2 C2          2.0512    3.1948   48.0908 C.2     1  <0>         0.5100
      3 N3          2.8699    2.1414   48.2816 N.am    1  <0>        -0.7000
      4 C4          3.5179    1.5001   47.1349 C.3     1  <0>         0.1200
      5 C5          3.2530   -0.0063   47.1760 C.3     1  <0>        -0.1000
      6 C6          1.7757   -0.2609   47.0217 C.ar    1  <0>        -0.0400
      7 C7          1.0267   -0.7560   48.0783 C.ar    1  <0>        -0.1700
      8 C8         -0.3257   -0.9772   47.8997 C.ar    1  <0>         0.1000
      9 N9         -0.9036   -0.7235   46.7419 N.ar    1  <0>        -0.4900
     10 C10        -0.2227   -0.2522   45.7156 C.ar    1  <0>         0.1000
     11 C11         1.1321   -0.0004   45.8217 C.ar    1  <0>        -0.1700
     12 C12         1.3902    3.8490   49.2607 C.2     1  <0>         0.5100
     13 O13         2.0642    4.3575   50.1323 O.2     1  <0>        -0.5200
     14 N14         0.0454    3.8740   49.3477 N.am    1  <0>        -0.5800
     15 C15        -0.7901    3.2584   48.3056 C.3     1  <0>         0.0800
     16 C16        -1.7978    2.3214   48.9800 C.3     1  <0>         0.0400
     17 N17        -2.5365    3.0625   50.0111 N.3     1  <0>        -0.5300
     18 C18        -3.6288    2.2497   50.5628 C.3     1  <0>         0.1000
     19 C19        -4.8968    3.0636   50.5889 C.ar    1  <0>         0.1300
     20 C20        -5.4069    3.4944   51.7988 C.ar    1  <0>        -0.1500
     21 C21        -6.5740    4.2432   51.8119 C.ar    1  <0>        -0.0700
     22 C22        -7.1865    4.5315   50.6021 C.ar    1  <0>        -0.1700
     23 C23        -6.6176    4.0664   49.4314 C.ar    1  <0>         0.1000
     24 N24        -5.5038    3.3611   49.4566 N.ar    1  <0>        -0.4800
     25 C25        -1.6396    3.5313   51.0759 C.3     1  <0>         0.0400
     26 C26        -0.6253    4.5125   50.4904 C.3     1  <0>         0.1100
     27 H27         3.0301    1.8078   49.1783 H       1  <0>         0.4100
     28 H28         3.1147    1.9149   46.2109 H       1  <0>         0.0800
     29 H29         4.5919    1.6814   47.1762 H       1  <0>         0.0800
     30 H30         3.7923   -0.4923   46.3629 H       1  <0>         0.0900
     31 H31         3.5936   -0.4091   48.1298 H       1  <0>         0.0900
     32 H32         1.4944   -0.9664   49.0289 H       1  <0>         0.1400
     33 H33        -0.9161   -1.3626   48.7178 H       1  <0>         0.1600
     34 H34        -0.7306   -0.0568   44.7826 H       1  <0>         0.1600
     35 H35         1.6841    0.3859   44.9777 H       1  <0>         0.1400
     36 H36        -1.3227    4.0352   47.7569 H       1  <0>         0.0800
     37 H37        -0.1614    2.6885   47.6213 H       1  <0>         0.1400
     38 H38        -2.4963    1.9413   48.2346 H       1  <0>         0.0900
     39 H39        -1.2676    1.4879   49.4407 H       1  <0>         0.0400
     40 H40        -3.7759    1.3676   49.9395 H       1  <0>         0.0900
     41 H41        -3.3748    1.9399   51.5765 H       1  <0>         0.0600
     42 H42        -4.9032    3.2507   52.7225 H       1  <0>         0.1400
     43 H43        -6.9959    4.5931   52.7424 H       1  <0>         0.1400
     44 H44        -8.0968    5.1119   50.5747 H       1  <0>         0.1400
     45 H45        -7.0888    4.2864   48.4848 H       1  <0>         0.1600
     46 H46        -2.2234    4.0286   51.8504 H       1  <0>         0.1000
     47 H47        -1.1116    2.6809   51.5075 H       1  <0>         0.0400
     48 H48         0.1114    4.7743   51.2499 H       1  <0>         0.1000
     49 H49        -1.1396    5.4112   50.1500 H       1  <0>         0.0800
@<TRIPOS>BOND
     1     1     2    2
     2     2     3   am
     3     2    12    1
     4     3     4    1
     5     3    27    1
     6     4     5    1
     7     4    28    1
     8     4    29    1
     9     5     6    1
    10     5    30    1
    11     5    31    1
    12     6    11   ar
    13     6     7   ar
    14     7     8   ar
    15     7    32    1
    16     8     9   ar
    17     8    33    1
    18     9    10   ar
    19    10    11   ar
    20    10    34    1
    21    11    35    1
    22    12    13    2
    23    12    14   am
    24    14    26    1
    25    14    15    1
    26    15    16    1
    27    15    36    1
    28    15    37    1
    29    16    17    1
    30    16    38    1
    31    16    39    1
    32    17    18    1
    33    17    25    1
    34    18    19    1
    35    18    40    1
    36    18    41    1
    37    19    24   ar
    38    19    20   ar
    39    20    21   ar
    40    20    42    1
    41    21    22   ar
    42    21    43    1
    43    22    23   ar
    44    22    44    1
    45    23    24   ar
    46    23    45    1
    47    25    26    1
    48    25    46    1
    49    25    47    1
    50    26    48    1
    51    26    49    1
@<TRIPOS>SUBSTRUCTURE
     1 <0>         1 TEMP              0 ****  ****    0 ROOT


##########                                Name:    ZINC000893400114
##########                DOCK_Rotatable_Bonds:                   6
##########                         Heavy_Atoms:                  27
##########                    Molecular_Weight:             381.472
##########                DOCK_Rotatable_Bonds:                   6
##########                       Formal_Charge:           0.0300001
##########                     HBond_Acceptors:                   8
##########                        HBond_Donors:                   1
##########                         Heavy_Atoms:                  27
##########                          Grid_Score:          -29.535194
##########                     Grid_vdw_energy:          -28.636200
##########                      Grid_es_energy:           -0.898994
##########           Internal_energy_repulsive:           80.212051

@<TRIPOS>MOLECULE
ZINC000893400114
 58 61 1 0 0
SMALL
USER_CHARGES


@<TRIPOS>ATOM
      1 O1         -1.0052    2.8649   47.8917 O.2     1  ZINC000893400114   -0.5600
      2 C2         -1.0658    1.9165   48.6500 C.2     1  ZINC000893400114    0.7100
      3 N3         -1.7973    2.0019   49.7788 N.am    1  ZINC000893400114   -0.7300
      4 C4         -2.5146    3.2396   50.0949 C.3     1  ZINC000893400114    0.1400
      5 H5         -2.1052    4.0731   49.5241 H       1  ZINC000893400114    0.1200
      6 C6         -2.4424    3.5348   51.6111 C.3     1  ZINC000893400114   -0.1400
      7 C7         -3.7510    2.8904   52.1200 C.3     1  ZINC000893400114    0.1000
      8 N8         -4.6614    2.8916   50.9690 N.am    1  ZINC000893400114   -0.6200
      9 C9         -6.1123    2.7107   51.0625 C.3     1  ZINC000893400114    0.1600
     10 C10        -6.4268    1.6068   52.0766 C.3     1  ZINC000893400114   -0.1700
     11 C11        -7.9451    1.4791   52.2258 C.3     1  ZINC000893400114    0.0700
     12 O12        -8.4900    2.7366   52.6309 O.3     1  ZINC000893400114   -0.3800
     13 C13        -8.2678    3.7965   51.6985 C.3     1  ZINC000893400114    0.0700
     14 C14        -6.7624    4.0172   51.5282 C.3     1  ZINC000893400114   -0.1700
     15 C15        -3.9927    3.0813   49.8147 C.2     1  ZINC000893400114    0.5100
     16 O16        -4.5023    3.1185   48.7147 O.2     1  ZINC000893400114   -0.4900
     17 N17        -0.4059    0.7778   48.3592 N.am    1  ZINC000893400114   -0.6300
     18 C18        -0.4689   -0.3850   49.2588 C.3     1  ZINC000893400114    0.0800
     19 C19        -0.8382   -1.6194   48.4280 C.3     1  ZINC000893400114    0.0500
     20 O20         0.0556   -1.7236   47.3172 O.3     1  ZINC000893400114   -0.3800
     21 C21        -0.0130   -0.6245   46.4055 C.3     1  ZINC000893400114    0.0600
     22 C22         0.3940    0.6588   47.1299 C.3     1  ZINC000893400114    0.1400
     23 H23         1.4516    0.6142   47.3895 H       1  ZINC000893400114    0.0800
     24 C24         0.1360    1.8652   46.2249 C.3     1  ZINC000893400114   -0.1200
     25 C25         0.7784    1.6237   44.8575 C.3     1  ZINC000893400114    0.0700
     26 H26         0.3202    0.7566   44.3818 H       1  ZINC000893400114    0.0800
     27 C27         2.2949    1.3884   45.0254 C.3     1  ZINC000893400114   -0.1500
     28 C28         2.8832    2.1458   43.8039 C.3     1  ZINC000893400114   -0.1600
     29 C29         1.8907    3.3299   43.6861 C.3     1  ZINC000893400114    0.0500
     30 O30         0.6069    2.7796   44.0292 O.3     1  ZINC000893400114   -0.3800
     31 H31        -1.8489    1.2439   50.3819 H       1  ZINC000893400114    0.4000
     32 H32        -1.5719    3.0570   52.0605 H       1  ZINC000893400114    0.1000
     33 H33        -2.4372    4.6083   51.7997 H       1  ZINC000893400114    0.1000
     34 H34        -3.5642    1.8692   52.4522 H       1  ZINC000893400114    0.0700
     35 H35        -4.1709    3.4817   52.9338 H       1  ZINC000893400114    0.0800
     36 H36        -6.5089    2.4342   50.0856 H       1  ZINC000893400114    0.0900
     37 H37        -6.0146    0.6610   51.7250 H       1  ZINC000893400114    0.0800
     38 H38        -5.9863    1.8614   53.0405 H       1  ZINC000893400114    0.0900
     39 H39        -8.3807    1.1850   51.2709 H       1  ZINC000893400114    0.0500
     40 H40        -8.1743    0.7243   52.9780 H       1  ZINC000893400114    0.1000
     41 H41        -8.7076    3.5326   50.7368 H       1  ZINC000893400114    0.0500
     42 H42        -8.7294    4.7109   52.0709 H       1  ZINC000893400114    0.1000
     43 H43        -6.3287    4.3204   52.4811 H       1  ZINC000893400114    0.0900
     44 H44        -6.5902    4.7951   50.7845 H       1  ZINC000893400114    0.0700
     45 H45         0.5017   -0.5370   49.7307 H       1  ZINC000893400114    0.0800
     46 H46        -1.2272   -0.2169   50.0234 H       1  ZINC000893400114    0.0800
     47 H47        -0.7555   -2.5127   49.0470 H       1  ZINC000893400114    0.1100
     48 H48        -1.8610   -1.5208   48.0644 H       1  ZINC000893400114    0.0500
     49 H49         0.6633   -0.8022   45.5695 H       1  ZINC000893400114    0.1300
     50 H50        -1.0327   -0.5224   46.0345 H       1  ZINC000893400114    0.0500
     51 H51        -0.9381    2.0044   46.1023 H       1  ZINC000893400114    0.0800
     52 H52         0.5686    2.7577   46.6771 H       1  ZINC000893400114    0.1100
     53 H53         2.6535    1.8210   45.9595 H       1  ZINC000893400114    0.0800
     54 H54         2.5307    0.3255   44.9731 H       1  ZINC000893400114    0.0800
     55 H55         3.8935    2.4991   44.0099 H       1  ZINC000893400114    0.0800
     56 H56         2.8613    1.5244   42.9086 H       1  ZINC000893400114    0.0800
     57 H57         2.1623    4.1220   44.3838 H       1  ZINC000893400114    0.0600
     58 H58         1.8771    3.7121   42.6654 H       1  ZINC000893400114    0.0800
@<TRIPOS>BOND
     1     1     2    2
     2     2     3   am
     3     2    17   am
     4     3     4    1
     5     3    31    1
     6     4     5    1
     7     4    15    1
     8     4     6    1
     9     6     7    1
    10     6    32    1
    11     6    33    1
    12     7     8    1
    13     7    34    1
    14     7    35    1
    15     8     9    1
    16     8    15   am
    17     9    14    1
    18     9    10    1
    19     9    36    1
    20    10    11    1
    21    10    37    1
    22    10    38    1
    23    11    12    1
    24    11    39    1
    25    11    40    1
    26    12    13    1
    27    13    14    1
    28    13    41    1
    29    13    42    1
    30    14    43    1
    31    14    44    1
    32    15    16    2
    33    17    22    1
    34    17    18    1
    35    18    19    1
    36    18    45    1
    37    18    46    1
    38    19    20    1
    39    19    47    1
    40    19    48    1
    41    20    21    1
    42    21    22    1
    43    21    49    1
    44    21    50    1
    45    22    23    1
    46    22    24    1
    47    24    25    1
    48    24    51    1
    49    24    52    1
    50    25    26    1
    51    25    30    1
    52    25    27    1
    53    27    28    1
    54    27    53    1
    55    27    54    1
    56    28    29    1
    57    28    55    1
    58    28    56    1
    59    29    30    1
    60    29    57    1
    61    29    58    1
@<TRIPOS>SUBSTRUCTURE
     1 ZINC000893400114        1 TEMP              0 ****  ****    0 ROOT


##########                                Name:    ZINC000347662449
##########                DOCK_Rotatable_Bonds:                   5
##########                         Heavy_Atoms:                  23
##########                    Molecular_Weight:              327.45
##########                DOCK_Rotatable_Bonds:                   5
##########                       Formal_Charge:                0.03
##########                     HBond_Acceptors:                   5
##########                        HBond_Donors:                   0
##########                         Heavy_Atoms:                  23
##########                          Grid_Score:          -29.533974
##########                     Grid_vdw_energy:          -27.921368
##########                      Grid_es_energy:           -1.612607
##########           Internal_energy_repulsive:            8.838777

@<TRIPOS>MOLECULE
ZINC000347662449
 44 46 1 0 0
SMALL
USER_CHARGES


@<TRIPOS>ATOM
      1 C1         -6.4808    4.6136   49.2868 C.2     1  ZINC000347662449   -0.1800
      2 C2         -7.2965    4.1117   50.1807 C.2     1  ZINC000347662449   -0.1700
      3 C3         -6.7468    3.5061   51.4464 C.3     1  ZINC000347662449    0.1600
      4 N4         -5.4087    2.9679   51.1892 N.am    1  ZINC000347662449   -0.6200
      5 C5         -5.1439    1.7138   50.4743 C.3     1  ZINC000347662449    0.1100
      6 C6         -3.6549    1.7776   50.0679 C.3     1  ZINC000347662449   -0.1100
      7 C7         -3.0771    2.7339   51.1368 C.3     1  ZINC000347662449   -0.1200
      8 H8         -2.6729    2.1682   51.9763 H       1  ZINC000347662449    0.1400
      9 S9         -1.7992    3.7932   50.4147 S.3     1  ZINC000347662449    0.0300
     10 C10        -0.3560    3.0129   51.0573 C.2     1  ZINC000347662449    0.1900
     11 N11         0.2149    3.2818   52.2085 N.2     1  ZINC000347662449   -0.4500
     12 C12         1.2909    2.4927   52.3671 C.2     1  ZINC000347662449   -0.0100
     13 C13         1.4016    1.7034   51.2849 C.2     1  ZINC000347662449   -0.0400
     14 N14         0.3550    2.0224   50.4462 N.pl3   1  ZINC000347662449   -0.4000
     15 C15         0.0791    1.4446   49.1990 C.ar    1  ZINC000347662449    0.1100
     16 C16         0.0539    0.0634   49.0628 C.ar    1  ZINC000347662449   -0.1100
     17 C17        -0.2182   -0.5031   47.8326 C.ar    1  ZINC000347662449   -0.1000
     18 C18        -0.4654    0.3042   46.7377 C.ar    1  ZINC000347662449   -0.0800
     19 C19        -0.7625   -0.3170   45.3972 C.3     1  ZINC000347662449   -0.1200
     20 C20        -0.4410    1.6805   46.8704 C.ar    1  ZINC000347662449   -0.0700
     21 C21        -0.7110    2.5569   45.6745 C.3     1  ZINC000347662449   -0.1200
     22 C22        -0.1752    2.2527   48.0989 C.ar    1  ZINC000347662449   -0.1100
     23 C23        -4.2657    3.5621   51.5728 C.2     1  ZINC000347662449    0.5300
     24 O24        -4.1973    4.6065   52.1856 O.2     1  ZINC000347662449   -0.4900
     25 H25        -5.4145    4.5934   49.4570 H       1  ZINC000347662449    0.1000
     26 H26        -6.8745    5.0436   48.3777 H       1  ZINC000347662449    0.1000
     27 H27        -8.3628    4.1319   50.0104 H       1  ZINC000347662449    0.1100
     28 H28        -6.6879    4.2719   52.2198 H       1  ZINC000347662449    0.0900
     29 H29        -7.4037    2.7027   51.7799 H       1  ZINC000347662449    0.0900
     30 H30        -5.3197    0.8613   51.1303 H       1  ZINC000347662449    0.0800
     31 H31        -5.7743    1.6448   49.5877 H       1  ZINC000347662449    0.0900
     32 H32        -3.1903    0.7937   50.1328 H       1  ZINC000347662449    0.1100
     33 H33        -3.5410    2.1959   49.0678 H       1  ZINC000347662449    0.0900
     34 H34         1.9541    2.4926   53.2195 H       1  ZINC000347662449    0.1800
     35 H35         2.1633    0.9586   51.1078 H       1  ZINC000347662449    0.1800
     36 H36         0.2473   -0.5677   49.9176 H       1  ZINC000347662449    0.1300
     37 H37        -0.2376   -1.5777   47.7259 H       1  ZINC000347662449    0.1300
     38 H38        -1.8371   -0.4702   45.2979 H       1  ZINC000347662449    0.0800
     39 H39        -0.4152    0.3459   44.6047 H       1  ZINC000347662449    0.0700
     40 H40        -0.2500   -1.2759   45.3195 H       1  ZINC000347662449    0.0700
     41 H41        -1.7791    2.7645   45.6098 H       1  ZINC000347662449    0.0800
     42 H42        -0.1645    3.4942   45.7801 H       1  ZINC000347662449    0.0700
     43 H43        -0.3845    2.0462   44.7686 H       1  ZINC000347662449    0.0800
     44 H44        -0.1565    3.3275   48.2020 H       1  ZINC000347662449    0.1300
@<TRIPOS>BOND
     1     1     2    2
     2     1    25    1
     3     1    26    1
     4     2     3    1
     5     2    27    1
     6     3     4    1
     7     3    28    1
     8     3    29    1
     9     4    23   am
    10     4     5    1
    11     5     6    1
    12     5    30    1
    13     5    31    1
    14     6     7    1
    15     6    32    1
    16     6    33    1
    17     7     8    1
    18     7     9    1
    19     7    23    1
    20     9    10    1
    21    10    14    1
    22    10    11    2
    23    11    12    1
    24    12    13    2
    25    12    34    1
    26    13    14    1
    27    13    35    1
    28    14    15    1
    29    15    22   ar
    30    15    16   ar
    31    16    17   ar
    32    16    36    1
    33    17    18   ar
    34    17    37    1
    35    18    19    1
    36    18    20   ar
    37    19    38    1
    38    19    39    1
    39    19    40    1
    40    20    21    1
    41    20    22   ar
    42    21    41    1
    43    21    42    1
    44    21    43    1
    45    22    44    1
    46    23    24    2
@<TRIPOS>SUBSTRUCTURE
     1 ZINC000347662449        1 TEMP              0 ****  ****    0 ROOT


##########                                Name:    ZINC000417533280
##########                DOCK_Rotatable_Bonds:                   9
##########                         Heavy_Atoms:                  26
##########                    Molecular_Weight:             367.439
##########                DOCK_Rotatable_Bonds:                   9
##########                       Formal_Charge:         -0.00999999
##########                     HBond_Acceptors:                   7
##########                        HBond_Donors:                   2
##########                         Heavy_Atoms:                  26
##########                          Grid_Score:          -29.520412
##########                     Grid_vdw_energy:          -28.633196
##########                      Grid_es_energy:           -0.887216
##########           Internal_energy_repulsive:           14.456314

@<TRIPOS>MOLECULE
ZINC000417533280
 53 54 1 0 0
SMALL
USER_CHARGES


@<TRIPOS>ATOM
      1 C1        -13.1024    0.5014   51.4180 C.3     1  ZINC000417533280   -0.1600
      2 C2        -12.6455    1.7405   52.1904 C.3     1  ZINC000417533280   -0.1200
      3 C3        -11.4905    2.4102   51.4431 C.3     1  ZINC000417533280   -0.1200
      4 C4        -11.0328    3.6487   52.2163 C.3     1  ZINC000417533280   -0.1300
      5 C5         -9.9442    4.3726   51.4215 C.3     1  ZINC000417533280    0.1200
      6 N6         -8.7246    3.5611   51.4129 N.am    1  ZINC000417533280   -0.7300
      7 C7         -7.5410    4.1200   51.7341 C.2     1  ZINC000417533280    0.5200
      8 O8         -7.4858    5.2945   52.0316 O.2     1  ZINC000417533280   -0.5400
      9 C9         -6.2860    3.2856   51.7234 C.3     1  ZINC000417533280   -0.1100
     10 C10        -6.2912    2.3726   50.4952 C.3     1  ZINC000417533280   -0.1300
     11 C11        -5.0311    1.5016   50.5060 C.3     1  ZINC000417533280    0.1300
     12 N12        -3.8535    2.3748   50.6039 N.am    1  ZINC000417533280   -0.6200
     13 C13        -2.8515    2.2793   49.7076 C.2     1  ZINC000417533280    0.7100
     14 O14        -1.8822    3.0076   49.7996 O.2     1  ZINC000417533280   -0.5600
     15 N15        -2.9238    1.3765   48.7096 N.am    1  ZINC000417533280   -0.6800
     16 C16        -1.8826    1.2773   47.7782 C.ar    1  ZINC000417533280    0.1900
     17 C17        -1.8575    2.1158   46.6721 C.ar    1  ZINC000417533280   -0.1100
     18 C18        -0.8296    2.0177   45.7539 C.ar    1  ZINC000417533280   -0.1100
     19 C19         0.1755    1.0839   45.9355 C.ar    1  ZINC000417533280    0.0500
     20 F20         1.1797    0.9901   45.0366 F       1  ZINC000417533280   -0.1300
     21 C21         0.1532    0.2447   47.0396 C.ar    1  ZINC000417533280    0.0900
     22 F22         1.1351   -0.6663   47.2155 F       1  ZINC000417533280   -0.1200
     23 C23        -0.8713    0.3441   47.9631 C.ar    1  ZINC000417533280   -0.1300
     24 C24        -0.8960   -0.5670   49.1633 C.3     1  ZINC000417533280   -0.1200
     25 C25        -3.7892    3.3542   51.6972 C.3     1  ZINC000417533280    0.1100
     26 C26        -5.0633    4.2045   51.6729 C.3     1  ZINC000417533280   -0.1200
     27 H27       -13.4358    0.7960   50.4228 H       1  ZINC000417533280    0.0500
     28 H28       -12.2718   -0.1989   51.3303 H       1  ZINC000417533280    0.0500
     29 H29       -13.9252    0.0243   51.9503 H       1  ZINC000417533280    0.0500
     30 H30       -13.4762    2.4409   52.2780 H       1  ZINC000417533280    0.0600
     31 H31       -12.3122    1.4459   53.1855 H       1  ZINC000417533280    0.0600
     32 H32       -10.6603    1.7097   51.3548 H       1  ZINC000417533280    0.0700
     33 H33       -11.8242    2.7058   50.4485 H       1  ZINC000417533280    0.0700
     34 H34       -11.8802    4.3180   52.3649 H       1  ZINC000417533280    0.0700
     35 H35       -10.6349    3.3457   53.1849 H       1  ZINC000417533280    0.0700
     36 H36       -10.2844    4.5281   50.3977 H       1  ZINC000417533280    0.0700
     37 H37        -9.7359    5.3367   51.8856 H       1  ZINC000417533280    0.0700
     38 H38        -8.7688    2.6215   51.1761 H       1  ZINC000417533280    0.4000
     39 H39        -6.2464    2.6778   52.6273 H       1  ZINC000417533280    0.1000
     40 H40        -7.1746    1.7347   50.5198 H       1  ZINC000417533280    0.0800
     41 H41        -6.3058    2.9802   49.5903 H       1  ZINC000417533280    0.0800
     42 H42        -5.0594    0.8287   51.3631 H       1  ZINC000417533280    0.0700
     43 H43        -4.9801    0.9212   49.5849 H       1  ZINC000417533280    0.1000
     44 H44        -3.6970    0.7955   48.6363 H       1  ZINC000417533280    0.4100
     45 H45        -2.6416    2.8447   46.5292 H       1  ZINC000417533280    0.1700
     46 H46        -0.8108    2.6701   44.8934 H       1  ZINC000417533280    0.1500
     47 H47        -0.3547   -0.0993   49.9857 H       1  ZINC000417533280    0.0800
     48 H48        -1.9287   -0.7454   49.4628 H       1  ZINC000417533280    0.0700
     49 H49        -0.4224   -1.5153   48.9093 H       1  ZINC000417533280    0.0800
     50 H50        -3.7162    2.8325   52.6514 H       1  ZINC000417533280    0.0800
     51 H51        -2.9187    3.9962   51.5618 H       1  ZINC000417533280    0.0800
     52 H52        -5.0893    4.7948   50.7570 H       1  ZINC000417533280    0.0800
     53 H53        -5.0727    4.8704   52.5358 H       1  ZINC000417533280    0.0900
@<TRIPOS>BOND
     1     1     2    1
     2     1    27    1
     3     1    28    1
     4     1    29    1
     5     2     3    1
     6     2    30    1
     7     2    31    1
     8     3     4    1
     9     3    32    1
    10     3    33    1
    11     4     5    1
    12     4    34    1
    13     4    35    1
    14     5     6    1
    15     5    36    1
    16     5    37    1
    17     6     7   am
    18     6    38    1
    19     7     8    2
    20     7     9    1
    21     9    26    1
    22     9    10    1
    23     9    39    1
    24    10    11    1
    25    10    40    1
    26    10    41    1
    27    11    12    1
    28    11    42    1
    29    11    43    1
    30    12    13   am
    31    12    25    1
    32    13    14    2
    33    13    15   am
    34    15    16    1
    35    15    44    1
    36    16    23   ar
    37    16    17   ar
    38    17    18   ar
    39    17    45    1
    40    18    19   ar
    41    18    46    1
    42    19    20    1
    43    19    21   ar
    44    21    22    1
    45    21    23   ar
    46    23    24    1
    47    24    47    1
    48    24    48    1
    49    24    49    1
    50    25    26    1
    51    25    50    1
    52    25    51    1
    53    26    52    1
    54    26    53    1
@<TRIPOS>SUBSTRUCTURE
     1 ZINC000417533280        1 TEMP              0 ****  ****    0 ROOT


##########                                Name:    ZINC001060578637
##########                DOCK_Rotatable_Bonds:                  10
##########                         Heavy_Atoms:                  25
##########                    Molecular_Weight:             345.401
##########                DOCK_Rotatable_Bonds:                  10
##########                       Formal_Charge:          -0.0400001
##########                     HBond_Acceptors:                   8
##########                        HBond_Donors:                   3
##########                         Heavy_Atoms:                  25
##########                          Grid_Score:          -29.517094
##########                     Grid_vdw_energy:          -28.691824
##########                      Grid_es_energy:           -0.825270
##########           Internal_energy_repulsive:           10.453043

@<TRIPOS>MOLECULE
ZINC001060578637
 48 49 1 0 0
SMALL
USER_CHARGES


@<TRIPOS>ATOM
      1 C1         -6.8201    5.0258   49.5404 C.3     1  ZINC001060578637   -0.1500
      2 C2         -7.7244    4.2494   50.4996 C.3     1  ZINC001060578637   -0.1300
      3 C3         -7.1316    2.8610   50.7484 C.3     1  ZINC001060578637    0.0700
      4 H4         -7.0751    2.3159   49.8061 H       1  ZINC001060578637    0.0900
      5 O5         -7.9632    2.1451   51.6637 O.3     1  ZINC001060578637   -0.3600
      6 C6         -7.4964    0.8285   51.9655 C.3     1  ZINC001060578637    0.0300
      7 C7         -5.7489    3.0021   51.3307 C.2     1  ZINC001060578637    0.5000
      8 O8         -5.6095    3.3377   52.4878 O.2     1  ZINC001060578637   -0.5200
      9 N9         -4.6671    2.7553   50.5657 N.am    1  ZINC001060578637   -0.7300
     10 C10        -3.3228    2.8907   51.1323 C.3     1  ZINC001060578637    0.1600
     11 C11        -2.3029    2.4375   50.1198 C.ar    1  ZINC001060578637   -0.1100
     12 C12        -1.3459    3.3222   49.6590 C.ar    1  ZINC001060578637   -0.0900
     13 C13        -0.4103    2.9064   48.7302 C.ar    1  ZINC001060578637   -0.1100
     14 C14        -0.4314    1.6057   48.2626 C.ar    1  ZINC001060578637   -0.0900
     15 C15         0.5882    1.1524   47.2497 C.3     1  ZINC001060578637    0.1800
     16 H16         0.1884    0.3113   46.6832 H       1  ZINC001060578637    0.1000
     17 C17         1.8664    0.7201   47.9709 C.3     1  ZINC001060578637   -0.1600
     18 N18         0.8928    2.2560   46.3357 N.am    1  ZINC001060578637   -0.7000
     19 C19         0.1352    2.4507   45.2380 C.2     1  ZINC001060578637    0.6100
     20 O20        -0.8001    1.7092   45.0056 O.2     1  ZINC001060578637   -0.5300
     21 C21         0.4407    3.5625   44.3190 C.2     1  ZINC001060578637    0.1200
     22 N22         1.4701    4.3789   44.3924 N.2     1  ZINC001060578637   -0.2400
     23 N23         1.4155    5.2248   43.4254 N.2     1  ZINC001060578637   -0.2900
     24 C24         0.3560    4.9945   42.6889 C.2     1  ZINC001060578637    0.1900
     25 N25        -0.2906    3.9389   43.2219 N.pl3   1  ZINC001060578637   -0.5500
     26 C26        -1.3876    0.7206   48.7244 C.ar    1  ZINC001060578637   -0.1100
     27 C27        -2.3208    1.1353   49.6560 C.ar    1  ZINC001060578637   -0.0900
     28 H28        -7.2259    6.0258   49.3876 H       1  ZINC001060578637    0.0600
     29 H29        -5.8192    5.1010   49.9654 H       1  ZINC001060578637    0.0500
     30 H30        -6.7709    4.5038   48.5848 H       1  ZINC001060578637    0.0600
     31 H31        -7.7985    4.7874   51.4447 H       1  ZINC001060578637    0.0800
     32 H32        -8.7170    4.1474   50.0609 H       1  ZINC001060578637    0.0800
     33 H33        -8.1382    0.3804   52.7241 H       1  ZINC001060578637    0.0900
     34 H34        -7.5208    0.2186   51.0625 H       1  ZINC001060578637    0.0500
     35 H35        -6.4742    0.8825   52.3401 H       1  ZINC001060578637    0.0400
     36 H36        -4.7785    2.4881   49.6399 H       1  ZINC001060578637    0.4000
     37 H37        -3.1405    3.9340   51.3898 H       1  ZINC001060578637    0.0800
     38 H38        -3.2429    2.2759   52.0288 H       1  ZINC001060578637    0.0800
     39 H39        -1.3293    4.3383   50.0244 H       1  ZINC001060578637    0.1300
     40 H40         0.3370    3.5977   48.3697 H       1  ZINC001060578637    0.1300
     41 H41         2.2661    1.5612   48.5374 H       1  ZINC001060578637    0.0600
     42 H42         1.6398   -0.1011   48.6510 H       1  ZINC001060578637    0.0700
     43 H43         2.6038    0.3922   47.2383 H       1  ZINC001060578637    0.0700
     44 H44         1.6396    2.8468   46.5205 H       1  ZINC001060578637    0.4100
     45 H45         0.0573    5.5482   41.8112 H       1  ZINC001060578637    0.2300
     46 H46        -1.1094    3.5319   42.8986 H       1  ZINC001060578637    0.4400
     47 H47        -1.4038   -0.2957   48.3592 H       1  ZINC001060578637    0.1300
     48 H48        -3.0679    0.4438   50.0167 H       1  ZINC001060578637    0.1300
@<TRIPOS>BOND
     1     1     2    1
     2     1    28    1
     3     1    29    1
     4     1    30    1
     5     2     3    1
     6     2    31    1
     7     2    32    1
     8     3     4    1
     9     3     5    1
    10     3     7    1
    11     5     6    1
    12     6    33    1
    13     6    34    1
    14     6    35    1
    15     7     8    2
    16     7     9   am
    17     9    10    1
    18     9    36    1
    19    10    11    1
    20    10    37    1
    21    10    38    1
    22    11    27   ar
    23    11    12   ar
    24    12    13   ar
    25    12    39    1
    26    13    14   ar
    27    13    40    1
    28    14    15    1
    29    14    26   ar
    30    15    16    1
    31    15    17    1
    32    15    18    1
    33    17    41    1
    34    17    42    1
    35    17    43    1
    36    18    19   am
    37    18    44    1
    38    19    20    2
    39    19    21    1
    40    21    25    1
    41    21    22    2
    42    22    23    1
    43    23    24    2
    44    24    25    1
    45    24    45    1
    46    25    46    1
    47    26    27   ar
    48    26    47    1
    49    27    48    1
@<TRIPOS>SUBSTRUCTURE
     1 ZINC001060578637        1 TEMP              0 ****  ****    0 ROOT


##########                                Name:    ZINC000342525234
##########                DOCK_Rotatable_Bonds:                   6
##########                         Heavy_Atoms:                  25
##########                    Molecular_Weight:             333.349
##########                DOCK_Rotatable_Bonds:                   6
##########                       Formal_Charge:           0.0500003
##########                     HBond_Acceptors:                   7
##########                        HBond_Donors:                   2
##########                         Heavy_Atoms:                  25
##########                          Grid_Score:          -29.512794
##########                     Grid_vdw_energy:          -28.039021
##########                      Grid_es_energy:           -1.473773
##########           Internal_energy_repulsive:            4.062599

@<TRIPOS>MOLECULE
ZINC000342525234
 40 43 1 0 0
SMALL
USER_CHARGES


@<TRIPOS>ATOM
      1 O1         -4.7715    3.2537   48.7560 O.2     1  <0>        -0.5100
      2 C2         -4.0139    2.3623   49.0838 C.2     1  <0>         0.6000
      3 N3         -4.2834    1.6152   50.1726 N.am    1  <0>        -0.7100
      4 C4         -5.4867    1.8818   50.9645 C.3     1  <0>         0.1200
      5 C5         -5.8478    0.6376   51.7784 C.3     1  <0>        -0.0900
      6 C6         -7.3049    0.6918   52.1590 C.ar    1  <0>        -0.0400
      7 C7         -8.1021   -0.3666   51.8689 C.ar    1  <0>        -0.1000
      8 C8         -9.4686   -0.3270   52.2207 C.ar    1  <0>         0.1100
      9 N9        -10.4860   -1.1584   52.0878 N.2     1  <0>        -0.3100
     10 N10       -11.6301   -0.5684   52.6370 N.pl3   1  <0>        -0.4200
     11 C11       -11.3317    0.6451   53.1202 C.2     1  <0>         0.0900
     12 C12        -9.9866    0.8727   52.8965 C.ar    1  <0>        -0.2100
     13 C13        -9.0992    1.9363   53.1670 C.ar    1  <0>        -0.0400
     14 C14        -7.7960    1.8282   52.8058 C.ar    1  <0>        -0.1500
     15 C15        -2.7953    2.0922   48.2820 C.2     1  <0>        -0.0200
     16 N16        -2.4947    2.6023   47.1128 N.2     1  <0>        -0.3200
     17 O17        -1.4325    2.1939   46.7054 O.3     1  <0>         0.1400
     18 C18        -0.8649    1.3338   47.5691 C.2     1  <0>         0.0100
     19 C19         0.4300    0.6383   47.4053 C.ar    1  <0>         0.0200
     20 C20         0.8330   -0.3532   48.3072 C.ar    1  <0>        -0.1400
     21 C21         2.0488   -0.9766   48.1162 C.ar    1  <0>         0.1100
     22 N22         2.8263   -0.6491   47.1019 N.ar    1  <0>        -0.4800
     23 C23         2.4847    0.2795   46.2293 C.ar    1  <0>         0.1100
     24 C24         1.2839    0.9494   46.3410 C.ar    1  <0>        -0.1500
     25 C25        -1.7192    1.2345   48.6312 C.2     1  <0>        -0.1500
     26 H26        -3.6805    0.9010   50.4321 H       1  <0>         0.4100
     27 H27        -5.2995    2.7164   51.6401 H       1  <0>         0.0800
     28 H28        -6.3121    2.1321   50.2979 H       1  <0>         0.0800
     29 H29        -5.6614   -0.2544   51.1804 H       1  <0>         0.0900
     30 H30        -5.2375    0.6042   52.6809 H       1  <0>         0.0800
     31 H31        -7.6940   -1.2340   51.3716 H       1  <0>         0.1300
     32 H32       -12.5092   -0.9774   52.6637 H       1  <0>         0.4500
     33 H33       -12.0203    1.3253   53.5994 H       1  <0>         0.1900
     34 H34        -9.4541    2.8282   53.6621 H       1  <0>         0.1300
     35 H35        -7.1225    2.6458   53.0162 H       1  <0>         0.1200
     36 H36         0.2019   -0.6260   49.1400 H       1  <0>         0.1400
     37 H37         2.3687   -1.7431   48.8066 H       1  <0>         0.1700
     38 H38         3.1525    0.5155   45.4140 H       1  <0>         0.1700
     39 H39         1.0108    1.7084   45.6228 H       1  <0>         0.1500
     40 H40        -1.6055    0.6380   49.5244 H       1  <0>         0.1900
@<TRIPOS>BOND
     1     1     2    2
     2     2     3   am
     3     2    15    1
     4     3     4    1
     5     3    26    1
     6     4     5    1
     7     4    27    1
     8     4    28    1
     9     5     6    1
    10     5    29    1
    11     5    30    1
    12     6    14   ar
    13     6     7   ar
    14     7     8   ar
    15     7    31    1
    16     8    12   ar
    17     8     9    2
    18     9    10    1
    19    10    11    1
    20    10    32    1
    21    11    12    2
    22    11    33    1
    23    12    13   ar
    24    13    14   ar
    25    13    34    1
    26    14    35    1
    27    15    25    1
    28    15    16    2
    29    16    17    1
    30    17    18    1
    31    18    19    1
    32    18    25    2
    33    19    24   ar
    34    19    20   ar
    35    20    21   ar
    36    20    36    1
    37    21    22   ar
    38    21    37    1
    39    22    23   ar
    40    23    24   ar
    41    23    38    1
    42    24    39    1
    43    25    40    1
@<TRIPOS>SUBSTRUCTURE
     1 <0>         1 TEMP              0 ****  ****    0 ROOT


##########                                Name:    ZINC000011972961
##########                DOCK_Rotatable_Bonds:                   6
##########                         Heavy_Atoms:                  28
##########                    Molecular_Weight:             397.501
##########                DOCK_Rotatable_Bonds:                   6
##########                       Formal_Charge:                   0
##########                     HBond_Acceptors:                   8
##########                        HBond_Donors:                   1
##########                         Heavy_Atoms:                  28
##########                          Grid_Score:          -29.496357
##########                     Grid_vdw_energy:          -29.496357
##########                      Grid_es_energy:            0.000000
##########           Internal_energy_repulsive:           26.668810

@<TRIPOS>MOLECULE
ZINC000011972961
 51 54 1 0 0
SMALL
USER_CHARGES


@<TRIPOS>ATOM
      1 C1         -0.5316    3.6678   47.4471 C.3              0.0000
      2 C2          0.1851    2.3620   47.2183 C.2              0.0000
      3 C3          1.2849    2.2741   46.4596 C.2              0.0000
      4 C4          1.9175    3.4062   45.7716 C.2              0.0000
      5 O5          2.8422    3.9976   46.2968 O.2              0.0000
      6 N6          1.4742    3.7903   44.5583 N.am             0.0000
      7 C7          0.3609    3.0781   43.9259 C.3              0.0000
      8 C8          2.1054    4.9200   43.8716 C.3              0.0000
      9 H9          2.5343    5.6136   44.5949 H                0.0000
     10 C10         3.1932    4.4187   42.8907 C.3              0.0000
     11 C11         2.4353    4.4174   41.5386 C.3              0.0000
     12 O12         1.5916    5.5859   41.6242 O.3              0.0000
     13 C13         1.0847    5.6426   42.9713 C.3              0.0000
     14 S14         1.8664    0.6189   46.4016 S.3              0.0000
     15 C15         0.5592    0.0710   47.4425 C.ar             0.0000
     16 N16         0.2568   -1.1432   47.9157 N.ar             0.0000
     17 C17        -0.7860   -1.3277   48.6926 C.ar             0.0000
     18 N18        -1.5845   -0.3370   49.0457 N.ar             0.0000
     19 C19        -1.3698    0.9016   48.6292 C.ar             0.0000
     20 N20        -2.2146    1.9251   49.0082 N.pl3            0.0000
     21 C21        -3.3676    1.6432   49.8668 C.3              0.0000
     22 C22        -3.6180    2.8201   50.7740 C.ar             0.0000
     23 N23        -2.6080    3.5800   51.1494 N.ar             0.0000
     24 C24        -2.7798    4.6203   51.9418 C.ar             0.0000
     25 C25        -1.5915    5.4566   52.3411 C.3              0.0000
     26 C26        -4.0369    4.9523   52.4098 C.ar             0.0000
     27 C27        -5.1237    4.1763   52.0364 C.ar             0.0000
     28 C28        -4.9047    3.0937   51.1985 C.ar             0.0000
     29 C29        -0.2505    1.1616   47.7890 C.ar             0.0000
     30 H30        -0.4098    3.9718   48.4868 H                0.0000
     31 H31        -0.1117    4.4323   46.7934 H                0.0000
     32 H32        -1.5920    3.5438   47.2268 H                0.0000
     33 H33        -0.5459    3.2280   44.5117 H                0.0000
     34 H34         0.2097    3.4627   42.9173 H                0.0000
     35 H35         0.5908    2.0137   43.8782 H                0.0000
     36 H36         4.0382    5.1066   42.8623 H                0.0000
     37 H37         3.5207    3.4129   43.1540 H                0.0000
     38 H38         3.1340    4.5087   40.7070 H                0.0000
     39 H39         1.8323    3.5151   41.4374 H                0.0000
     40 H40         0.1202    5.1379   43.0259 H                0.0000
     41 H41         0.9798    6.6814   43.2845 H                0.0000
     42 H42        -0.9977   -2.3230   49.0543 H                0.0000
     43 H43        -2.0449    2.8310   48.7060 H                0.0000
     44 H44        -4.2475    1.4679   49.2477 H                0.0000
     45 H45        -3.1645    0.7573   50.4686 H                0.0000
     46 H46        -1.4521    6.2591   51.6168 H                0.0000
     47 H47        -1.7637    5.8845   53.3287 H                0.0000
     48 H48        -0.6991    4.8312   52.3666 H                0.0000
     49 H49        -4.1711    5.8054   53.0584 H                0.0000
     50 H50        -6.1178    4.4119   52.3868 H                0.0000
     51 H51        -5.7280    2.4679   50.8872 H                0.0000
@<TRIPOS>BOND
     1     1     2    1
     2     1    30    1
     3     1    31    1
     4     1    32    1
     5     2    29    1
     6     2     3    2
     7     3     4    1
     8     3    14    1
     9     4     5    2
    10     4     6   am
    11     6     7    1
    12     6     8    1
    13     7    33    1
    14     7    34    1
    15     7    35    1
    16     8     9    1
    17     8    13    1
    18     8    10    1
    19    10    11    1
    20    10    36    1
    21    10    37    1
    22    11    12    1
    23    11    38    1
    24    11    39    1
    25    12    13    1
    26    13    40    1
    27    13    41    1
    28    14    15    1
    29    15    29   ar
    30    15    16   ar
    31    16    17   ar
    32    17    18   ar
    33    17    42    1
    34    18    19   ar
    35    19    20    1
    36    19    29   ar
    37    20    21    1
    38    20    43    1
    39    21    22    1
    40    21    44    1
    41    21    45    1
    42    22    28   ar
    43    22    23   ar
    44    23    24   ar
    45    24    25    1
    46    24    26   ar
    47    25    46    1
    48    25    47    1
    49    25    48    1
    50    26    27   ar
    51    26    49    1
    52    27    28   ar
    53    27    50    1
    54    28    51    1
@<TRIPOS>SUBSTRUCTURE
     1         1 TEMP              0 ****  ****    0 ROOT


##########                                Name:    ZINC000179743483
##########                DOCK_Rotatable_Bonds:                   5
##########                         Heavy_Atoms:                  23
##########                    Molecular_Weight:             393.347
##########                DOCK_Rotatable_Bonds:                   5
##########                       Formal_Charge:          -0.0199999
##########                     HBond_Acceptors:                   4
##########                        HBond_Donors:                   0
##########                         Heavy_Atoms:                  23
##########                          Grid_Score:          -29.491936
##########                     Grid_vdw_energy:          -28.836708
##########                      Grid_es_energy:           -0.655228
##########           Internal_energy_repulsive:           21.547874

@<TRIPOS>MOLECULE
ZINC000179743483
 44 46 1 0 0
SMALL
USER_CHARGES


@<TRIPOS>ATOM
      1 C1          1.8888   -0.4176   48.5058 C.3     1  ZINC000179743483   -0.1400
      2 C2          1.1887    0.6194   47.6251 C.3     1  ZINC000179743483   -0.1000
      3 H3          1.5613    1.6143   47.8692 H       1  ZINC000179743483    0.1000
      4 C4          1.4746    0.3147   46.1532 C.3     1  ZINC000179743483   -0.0700
      5 C5          1.3509    1.5805   45.3450 C.ar    1  ZINC000179743483   -0.0600
      6 C6          0.1806    1.8519   44.6608 C.ar    1  ZINC000179743483   -0.1100
      7 C7          0.0665    3.0130   43.9197 C.ar    1  ZINC000179743483   -0.0900
      8 C8          1.1234    3.9036   43.8626 C.ar    1  ZINC000179743483   -0.0900
      9 Br9         0.9677    5.4926   42.8494 Br      1  ZINC000179743483   -0.0500
     10 C10         2.2941    3.6316   44.5474 C.ar    1  ZINC000179743483   -0.0900
     11 C11         2.4054    2.4728   45.2924 C.ar    1  ZINC000179743483   -0.1100
     12 C12        -0.2972    0.5654   47.8699 C.2     1  ZINC000179743483    0.5200
     13 O13        -1.0194   -0.0190   47.0903 O.2     1  ZINC000179743483   -0.5300
     14 N14        -0.8238    1.1666   48.9552 N.am    1  ZINC000179743483   -0.6100
     15 C15         0.0382    1.8784   49.9086 C.3     1  ZINC000179743483    0.1000
     16 C16        -0.4987    3.3015   50.0914 C.3     1  ZINC000179743483   -0.1400
     17 C17        -1.9716    3.2380   50.5019 C.3     1  ZINC000179743483   -0.1100
     18 C18        -2.7815    2.5542   49.3980 C.3     1  ZINC000179743483   -0.0200
     19 H19        -2.6670    3.1085   48.4664 H       1  ZINC000179743483    0.0900
     20 C20        -4.2367    2.5218   49.7883 C.2     1  ZINC000179743483    0.0500
     21 N21        -5.1660    3.2241   49.2333 N.2     1  ZINC000179743483   -0.4700
     22 C22        -6.3905    3.0742   49.6970 C.2     1  ZINC000179743483    0.0400
     23 C23        -6.5000    2.1967   50.6989 C.2     1  ZINC000179743483   -0.2600
     24 S24        -4.8964    1.5438   51.0259 S.3     1  ZINC000179743483    0.1300
     25 C25        -2.2713    1.1279   49.2040 C.3     1  ZINC000179743483    0.1200
     26 H26         1.4619   -1.4025   48.3166 H       1  ZINC000179743483    0.0700
     27 H27         2.9536   -0.4323   48.2734 H       1  ZINC000179743483    0.0700
     28 H28         1.7495   -0.1567   49.5550 H       1  ZINC000179743483    0.0600
     29 H29         2.4847   -0.0825   46.0539 H       1  ZINC000179743483    0.0900
     30 H30         0.7575   -0.4208   45.7886 H       1  ZINC000179743483    0.0800
     31 H31        -0.6444    1.1564   44.7051 H       1  ZINC000179743483    0.1300
     32 H32        -0.8476    3.2248   43.3849 H       1  ZINC000179743483    0.1300
     33 H33         3.1196    4.3266   44.5031 H       1  ZINC000179743483    0.1300
     34 H34         3.3195    2.2603   45.8272 H       1  ZINC000179743483    0.1300
     35 H35         0.0300    1.3588   50.8669 H       1  ZINC000179743483    0.0700
     36 H36         1.0562    1.9188   49.5212 H       1  ZINC000179743483    0.0900
     37 H37         0.0737    3.8093   50.8677 H       1  ZINC000179743483    0.0800
     38 H38        -0.4057    3.8486   49.1533 H       1  ZINC000179743483    0.0700
     39 H39        -2.0666    2.6694   51.4270 H       1  ZINC000179743483    0.0800
     40 H40        -2.3495    4.2486   50.6565 H       1  ZINC000179743483    0.0700
     41 H41        -7.2359    3.6164   49.3001 H       1  ZINC000179743483    0.1800
     42 H42        -7.4112    1.9317   51.2146 H       1  ZINC000179743483    0.1800
     43 H43        -2.7775    0.6711   48.3535 H       1  ZINC000179743483    0.0900
     44 H44        -2.4659    0.5446   50.1040 H       1  ZINC000179743483    0.0800
@<TRIPOS>BOND
     1     1     2    1
     2     1    26    1
     3     1    27    1
     4     1    28    1
     5     2     3    1
     6     2     4    1
     7     2    12    1
     8     4     5    1
     9     4    29    1
    10     4    30    1
    11     5    11   ar
    12     5     6   ar
    13     6     7   ar
    14     6    31    1
    15     7     8   ar
    16     7    32    1
    17     8     9    1
    18     8    10   ar
    19    10    11   ar
    20    10    33    1
    21    11    34    1
    22    12    13    2
    23    12    14   am
    24    14    25    1
    25    14    15    1
    26    15    16    1
    27    15    35    1
    28    15    36    1
    29    16    17    1
    30    16    37    1
    31    16    38    1
    32    17    18    1
    33    17    39    1
    34    17    40    1
    35    18    19    1
    36    18    20    1
    37    18    25    1
    38    20    24    1
    39    20    21    2
    40    21    22    1
    41    22    23    2
    42    22    41    1
    43    23    24    1
    44    23    42    1
    45    25    43    1
    46    25    44    1
@<TRIPOS>SUBSTRUCTURE
     1 ZINC000179743483        1 TEMP              0 ****  ****    0 ROOT


##########                                Name:    ZINC000848949366
##########                DOCK_Rotatable_Bonds:                   8
##########                         Heavy_Atoms:                  25
##########                    Molecular_Weight:             368.773
##########                DOCK_Rotatable_Bonds:                   8
##########                       Formal_Charge:          0.00999947
##########                     HBond_Acceptors:                   9
##########                        HBond_Donors:                   3
##########                         Heavy_Atoms:                  25
##########                          Grid_Score:          -29.468433
##########                     Grid_vdw_energy:          -27.449316
##########                      Grid_es_energy:           -2.019118
##########           Internal_energy_repulsive:           14.852119

@<TRIPOS>MOLECULE
ZINC000848949366
 42 43 1 0 0
SMALL
USER_CHARGES


@<TRIPOS>ATOM
      1 C1         -0.3521    0.0183   45.0190 C.3     1  ZINC000848949366   -0.1500
      2 C2         -0.3564   -0.6065   46.4157 C.3     1  ZINC000848949366    0.0600
      3 O3         -0.0379    0.3934   47.3856 O.3     1  ZINC000848949366   -0.3500
      4 C4         -0.1134    0.0334   48.6841 C.2     1  ZINC000848949366    0.5400
      5 O5         -0.5455   -1.0630   48.9873 O.2     1  ZINC000848949366   -0.4800
      6 C6          0.3099    0.9305   49.6925 C.2     1  ZINC000848949366   -0.2300
      7 C7         -0.4992    1.9179   50.1329 C.2     1  ZINC000848949366    0.2000
      8 C8         -1.8768    2.0672   49.5405 C.3     1  ZINC000848949366    0.1000
      9 O9         -2.8090    2.4704   50.5782 O.3     1  ZINC000848949366   -0.3500
     10 C10        -4.0639    2.7708   50.1901 C.2     1  ZINC000848949366    0.5100
     11 O11        -4.3604    2.7364   49.0121 O.2     1  ZINC000848949366   -0.4800
     12 C12        -5.0768    3.1411   51.1941 C.ar    1  ZINC000848949366   -0.1600
     13 C13        -4.7425    3.1729   52.5508 C.ar    1  ZINC000848949366   -0.0300
     14 C14        -5.6938    3.5197   53.4847 C.ar    1  ZINC000848949366   -0.1300
     15 C15        -6.9831    3.8375   53.0852 C.ar    1  ZINC000848949366    0.0200
     16 Cl16       -8.1722    4.2724   54.2728 Cl      1  ZINC000848949366   -0.0500
     17 C17        -7.3268    3.8105   51.7464 C.ar    1  ZINC000848949366   -0.1500
     18 C18        -6.3803    3.4692   50.7930 C.ar    1  ZINC000848949366    0.1900
     19 O19        -6.7159    3.4421   49.4791 O.3     1  ZINC000848949366   -0.4700
     20 N20        -0.0896    2.7831   51.1069 N.am    1  ZINC000848949366   -0.6400
     21 C21         1.1142    2.7279   51.6907 C.2     1  ZINC000848949366    0.7100
     22 O22         1.3888    3.5429   52.5498 O.2     1  ZINC000848949366   -0.5600
     23 N23         2.0310    1.7980   51.3573 N.am    1  ZINC000848949366   -0.7100
     24 C24         1.6841    0.8123   50.3196 C.3     1  ZINC000848949366    0.2000
     25 H25         1.7776   -0.1820   50.7562 H       1  ZINC000848949366    0.0900
     26 C26         2.7156    0.9281   49.1956 C.3     1  ZINC000848949366   -0.1700
     27 H27        -0.5951   -0.7443   44.2791 H       1  ZINC000848949366    0.0800
     28 H28        -1.0936    0.8160   44.9756 H       1  ZINC000848949366    0.0700
     29 H29         0.6355    0.4282   44.8074 H       1  ZINC000848949366    0.0700
     30 H30        -1.3440   -1.0164   46.6273 H       1  ZINC000848949366    0.0700
     31 H31         0.3851   -1.4042   46.4591 H       1  ZINC000848949366    0.0700
     32 H32        -1.8553    2.8249   48.7571 H       1  ZINC000848949366    0.1100
     33 H33        -2.1950    1.1150   49.1162 H       1  ZINC000848949366    0.1000
     34 H34        -3.7398    2.9254   52.8666 H       1  ZINC000848949366    0.1500
     35 H35        -5.4344    3.5438   54.5328 H       1  ZINC000848949366    0.1500
     36 H36        -8.3329    4.0592   51.4426 H       1  ZINC000848949366    0.1500
     37 H37        -7.6381    3.6748   49.3038 H       1  ZINC000848949366    0.4000
     38 H38        -0.7050    3.4766   51.3916 H       1  ZINC000848949366    0.4300
     39 H39         2.8974    1.7765   51.7929 H       1  ZINC000848949366    0.4400
     40 H40         3.7100    0.7235   49.5923 H       1  ZINC000848949366    0.0700
     41 H41         2.4816    0.2072   48.4121 H       1  ZINC000848949366    0.0700
     42 H42         2.6900    1.9360   48.7813 H       1  ZINC000848949366    0.0700
@<TRIPOS>BOND
     1     1     2    1
     2     1    27    1
     3     1    28    1
     4     1    29    1
     5     2     3    1
     6     2    30    1
     7     2    31    1
     8     3     4    1
     9     4     5    2
    10     4     6    1
    11     6    24    1
    12     6     7    2
    13     7     8    1
    14     7    20    1
    15     8     9    1
    16     8    32    1
    17     8    33    1
    18     9    10    1
    19    10    11    2
    20    10    12    1
    21    12    18   ar
    22    12    13   ar
    23    13    14   ar
    24    13    34    1
    25    14    15   ar
    26    14    35    1
    27    15    16    1
    28    15    17   ar
    29    17    18   ar
    30    17    36    1
    31    18    19    1
    32    19    37    1
    33    20    21   am
    34    20    38    1
    35    21    22    2
    36    21    23   am
    37    23    24    1
    38    23    39    1
    39    24    25    1
    40    24    26    1
    41    26    40    1
    42    26    41    1
    43    26    42    1
@<TRIPOS>SUBSTRUCTURE
     1 ZINC000848949366        1 TEMP              0 ****  ****    0 ROOT


##########                                Name:    ZINC000012979878
##########                DOCK_Rotatable_Bonds:                   7
##########                         Heavy_Atoms:                  26
##########                    Molecular_Weight:             388.874
##########                DOCK_Rotatable_Bonds:                   7
##########                       Formal_Charge:          -0.0100003
##########                     HBond_Acceptors:                   7
##########                        HBond_Donors:                   1
##########                         Heavy_Atoms:                  26
##########                          Grid_Score:          -29.404556
##########                     Grid_vdw_energy:          -28.551546
##########                      Grid_es_energy:           -0.853010
##########           Internal_energy_repulsive:           13.953520

@<TRIPOS>MOLECULE
ZINC000012979878
 43 45 1 0 0
SMALL
USER_CHARGES


@<TRIPOS>ATOM
      1 C1         -9.8230    0.4055   52.3940 C.3     1  <0>         0.0300
      2 O2         -8.4472    0.1671   52.0900 O.3     1  <0>        -0.3100
      3 C3         -7.6262    1.2496   52.0571 C.ar    1  <0>         0.1500
      4 C4         -8.1355    2.5152   52.3112 C.ar    1  <0>        -0.2200
      5 C5         -7.3018    3.6172   52.2777 C.ar    1  <0>        -0.0600
      6 C6         -5.9596    3.4625   51.9917 C.ar    1  <0>        -0.1800
      7 C7         -5.4440    2.1976   51.7363 C.ar    1  <0>         0.1800
      8 N8         -4.0850    2.0409   51.4467 N.am    1  <0>        -0.6700
      9 C9         -3.6969    1.6881   50.2051 C.2     1  <0>         0.6000
     10 O10        -4.5292    1.5059   49.3362 O.2     1  <0>        -0.4900
     11 C11        -2.2716    1.5238   49.9013 C.2     1  <0>        -0.3000
     12 C12        -1.2673    2.3392   50.3104 C.2     1  <0>         0.1600
     13 C13        -1.5000    3.5617   51.1604 C.3     1  <0>        -0.0900
     14 N14        -0.0783    1.9716   49.9033 N.2     1  <0>        -0.4500
     15 C15        -0.0020    0.9024   49.1779 C.2     1  <0>         0.0600
     16 C16         1.2762    0.3298   48.6217 C.3     1  <0>         0.1300
     17 O17         1.1276    0.1083   47.2178 O.3     1  <0>        -0.3000
     18 C18         1.1008    1.2077   46.4190 C.ar    1  <0>         0.1300
     19 C19         0.0945    1.3566   45.4759 C.ar    1  <0>        -0.2000
     20 C20         0.0690    2.4747   44.6650 C.ar    1  <0>        -0.0700
     21 C21         1.0466    3.4456   44.7928 C.ar    1  <0>        -0.0700
     22 Cl22        1.0127    4.8495   43.7722 Cl      1  <0>        -0.0700
     23 C23         2.0508    3.2990   45.7332 C.ar    1  <0>        -0.0700
     24 C24         2.0765    2.1851   46.5499 C.ar    1  <0>        -0.1300
     25 S25        -1.5556    0.2277   48.9461 S.3     1  <0>         0.2000
     26 C26        -6.2785    1.0894   51.7752 C.ar    1  <0>        -0.1500
     27 H27        -9.9032    0.8639   53.3797 H       1  <0>         0.0600
     28 H28       -10.2498    1.0741   51.6465 H       1  <0>         0.0600
     29 H29       -10.3656   -0.5400   52.3878 H       1  <0>         0.1000
     30 H30        -9.1847    2.6393   52.5352 H       1  <0>         0.1300
     31 H31        -7.7009    4.6011   52.4752 H       1  <0>         0.1300
     32 H32        -5.3103    4.3251   51.9661 H       1  <0>         0.1300
     33 H33        -3.4216    2.1860   52.1393 H       1  <0>         0.4100
     34 H34        -1.4404    3.2884   52.2139 H       1  <0>         0.0900
     35 H35        -0.7402    4.3104   50.9358 H       1  <0>         0.0800
     36 H36        -2.4874    3.9705   50.9463 H       1  <0>         0.1000
     37 H37         2.0934    1.0301   48.7945 H       1  <0>         0.0900
     38 H38         1.4967   -0.6156   49.1174 H       1  <0>         0.1000
     39 H39        -0.6683    0.5987   45.3753 H       1  <0>         0.1400
     40 H40        -0.7143    2.5909   43.9306 H       1  <0>         0.1400
     41 H41         2.8128    4.0580   45.8317 H       1  <0>         0.1400
     42 H42         2.8605    2.0711   47.2838 H       1  <0>         0.1400
     43 H43        -5.8803    0.1052   51.5775 H       1  <0>         0.1400
@<TRIPOS>BOND
     1     1     2    1
     2     1    27    1
     3     1    28    1
     4     1    29    1
     5     2     3    1
     6     3    26   ar
     7     3     4   ar
     8     4     5   ar
     9     4    30    1
    10     5     6   ar
    11     5    31    1
    12     6     7   ar
    13     6    32    1
    14     7     8    1
    15     7    26   ar
    16     8     9   am
    17     8    33    1
    18     9    10    2
    19     9    11    1
    20    11    25    1
    21    11    12    2
    22    12    13    1
    23    12    14    1
    24    13    34    1
    25    13    35    1
    26    13    36    1
    27    14    15    2
    28    15    16    1
    29    15    25    1
    30    16    17    1
    31    16    37    1
    32    16    38    1
    33    17    18    1
    34    18    24   ar
    35    18    19   ar
    36    19    20   ar
    37    19    39    1
    38    20    21   ar
    39    20    40    1
    40    21    22    1
    41    21    23   ar
    42    23    24   ar
    43    23    41    1
    44    24    42    1
    45    26    43    1
@<TRIPOS>SUBSTRUCTURE
     1 <0>         1 TEMP              0 ****  ****    0 ROOT


##########                                Name:    ZINC001087843226
##########                DOCK_Rotatable_Bonds:                   6
##########                         Heavy_Atoms:                  27
##########                    Molecular_Weight:             368.479
##########                DOCK_Rotatable_Bonds:                   6
##########                       Formal_Charge:        -4.47035e-07
##########                     HBond_Acceptors:                   6
##########                        HBond_Donors:                   1
##########                         Heavy_Atoms:                  27
##########                          Grid_Score:          -29.404522
##########                     Grid_vdw_energy:          -27.593775
##########                      Grid_es_energy:           -1.810747
##########           Internal_energy_repulsive:           27.110014

@<TRIPOS>MOLECULE
ZINC001087843226
 55 58 1 0 0
SMALL
USER_CHARGES


@<TRIPOS>ATOM
      1 C1         -4.0907    5.5286   52.4007 C.3     1  ZINC001087843226   -0.1500
      2 C2         -5.4824    4.8946   52.4472 C.3     1  ZINC001087843226   -0.1500
      3 C3         -5.3563    3.3765   52.3040 C.3     1  ZINC001087843226    0.0700
      4 H4         -4.7356    2.9788   53.1068 H       1  ZINC001087843226    0.1000
      5 C5         -4.7323    3.0282   50.9362 C.3     1  ZINC001087843226    0.1300
      6 H6         -4.8898    3.8377   50.2235 H       1  ZINC001087843226    0.1000
      7 N7         -3.3038    2.7359   51.0779 N.am    1  ZINC001087843226   -0.7200
      8 C8         -2.5372    2.5734   49.9814 C.2     1  ZINC001087843226    0.5600
      9 O9         -3.0313    2.6680   48.8749 O.2     1  ZINC001087843226   -0.5300
     10 C10        -1.0951    2.2802   50.1244 C.ar    1  ZINC001087843226   -0.1400
     11 C11        -0.2649    3.1734   50.8008 C.ar    1  ZINC001087843226   -0.0800
     12 C12         1.0801    2.8941   50.9310 C.ar    1  ZINC001087843226   -0.1300
     13 C13         1.6019    1.7328   50.3929 C.ar    1  ZINC001087843226   -0.0400
     14 C14         3.0721    1.4357   50.5400 C.3     1  ZINC001087843226   -0.1200
     15 C15         0.7836    0.8389   49.7192 C.ar    1  ZINC001087843226   -0.1100
     16 C16        -0.5634    1.1042   49.5867 C.ar    1  ZINC001087843226   -0.0300
     17 C17        -1.2337   -0.0134   48.8170 C.3     1  ZINC001087843226   -0.0800
     18 C18        -0.0829   -0.7696   48.1194 C.3     1  ZINC001087843226   -0.1200
     19 C19         1.1139   -0.4798   49.0525 C.3     1  ZINC001087843226   -0.0800
     20 C20        -5.5159    1.7596   50.5075 C.3     1  ZINC001087843226   -0.1400
     21 C21        -6.9306    2.0640   51.0603 C.3     1  ZINC001087843226    0.0400
     22 N22        -6.6929    2.7557   52.3490 N.3     1  ZINC001087843226   -0.5100
     23 C23        -7.7321    3.7617   52.6060 C.3     1  ZINC001087843226    0.1100
     24 C24        -9.0798    3.0894   52.6598 C.2     1  ZINC001087843226    0.0800
     25 N25        -9.2950    1.8685   53.0498 N.2     1  ZINC001087843226   -0.2700
     26 O26       -10.6899    1.6302   52.9488 O.3     1  ZINC001087843226    0.0300
     27 N27       -11.2670    2.8314   52.4619 N.2     1  ZINC001087843226   -0.2800
     28 C28       -10.3035    3.6885   52.3010 C.2     1  ZINC001087843226    0.0900
     29 C29       -10.4681    5.0997   51.7987 C.3     1  ZINC001087843226   -0.0900
     30 H30        -4.1847    6.6140   52.4334 H       1  ZINC001087843226    0.0600
     31 H31        -3.5077    5.1883   53.2565 H       1  ZINC001087843226    0.0600
     32 H32        -3.5882    5.2350   51.4790 H       1  ZINC001087843226    0.0600
     33 H33        -5.9580    5.1315   53.3989 H       1  ZINC001087843226    0.0800
     34 H34        -6.0880    5.2874   51.6305 H       1  ZINC001087843226    0.0700
     35 H35        -2.9097    2.6592   51.9610 H       1  ZINC001087843226    0.4000
     36 H36        -0.6729    4.0808   51.2208 H       1  ZINC001087843226    0.1300
     37 H37         1.7259    3.5840   51.4537 H       1  ZINC001087843226    0.1300
     38 H38         3.2385    0.8711   51.4574 H       1  ZINC001087843226    0.0800
     39 H39         3.4115    0.8497   49.6859 H       1  ZINC001087843226    0.0700
     40 H40         3.6293    2.3715   50.5832 H       1  ZINC001087843226    0.0700
     41 H41        -1.7639   -0.6777   49.4995 H       1  ZINC001087843226    0.0800
     42 H42        -1.9207    0.3963   48.0766 H       1  ZINC001087843226    0.0900
     43 H43        -0.2903   -1.8389   48.0790 H       1  ZINC001087843226    0.0800
     44 H44         0.0942   -0.3699   47.1210 H       1  ZINC001087843226    0.0700
     45 H45         2.0319   -0.3868   48.4723 H       1  ZINC001087843226    0.0800
     46 H46         1.2138   -1.2705   49.7960 H       1  ZINC001087843226    0.0800
     47 H47        -5.5338    1.6600   49.4222 H       1  ZINC001087843226    0.0800
     48 H48        -5.0984    0.8670   50.9732 H       1  ZINC001087843226    0.0800
     49 H49        -7.4744    2.7134   50.3741 H       1  ZINC001087843226    0.0600
     50 H50        -7.4813    1.1378   51.2242 H       1  ZINC001087843226    0.0800
     51 H51        -7.5336    4.2542   53.5579 H       1  ZINC001087843226    0.1200
     52 H52        -7.7270    4.5019   51.8058 H       1  ZINC001087843226    0.0700
     53 H53       -10.5445    5.7805   52.6465 H       1  ZINC001087843226    0.1000
     54 H54        -9.6053    5.3719   51.1908 H       1  ZINC001087843226    0.0900
     55 H55       -11.3735    5.1674   51.1956 H       1  ZINC001087843226    0.0900
@<TRIPOS>BOND
     1     1     2    1
     2     1    30    1
     3     1    31    1
     4     1    32    1
     5     2     3    1
     6     2    33    1
     7     2    34    1
     8     3     4    1
     9     3    22    1
    10     3     5    1
    11     5     6    1
    12     5     7    1
    13     5    20    1
    14     7     8   am
    15     7    35    1
    16     8     9    2
    17     8    10    1
    18    10    16   ar
    19    10    11   ar
    20    11    12   ar
    21    11    36    1
    22    12    13   ar
    23    12    37    1
    24    13    14    1
    25    13    15   ar
    26    14    38    1
    27    14    39    1
    28    14    40    1
    29    15    19    1
    30    15    16   ar
    31    16    17    1
    32    17    18    1
    33    17    41    1
    34    17    42    1
    35    18    19    1
    36    18    43    1
    37    18    44    1
    38    19    45    1
    39    19    46    1
    40    20    21    1
    41    20    47    1
    42    20    48    1
    43    21    22    1
    44    21    49    1
    45    21    50    1
    46    22    23    1
    47    23    24    1
    48    23    51    1
    49    23    52    1
    50    24    28    1
    51    24    25    2
    52    25    26    1
    53    26    27    1
    54    27    28    2
    55    28    29    1
    56    29    53    1
    57    29    54    1
    58    29    55    1
@<TRIPOS>SUBSTRUCTURE
     1 ZINC001087843226        1 TEMP              0 ****  ****    0 ROOT


##########                                Name:    ZINC000150894060
##########                DOCK_Rotatable_Bonds:                  10
##########                         Heavy_Atoms:                  27
##########                    Molecular_Weight:              366.42
##########                DOCK_Rotatable_Bonds:                  10
##########                       Formal_Charge:        -6.70552e-07
##########                     HBond_Acceptors:                   7
##########                        HBond_Donors:                   2
##########                         Heavy_Atoms:                  27
##########                          Grid_Score:          -29.397274
##########                     Grid_vdw_energy:          -28.458881
##########                      Grid_es_energy:           -0.938393
##########           Internal_energy_repulsive:           15.381325

@<TRIPOS>MOLECULE
ZINC000150894060
 49 51 1 0 0
SMALL
USER_CHARGES


@<TRIPOS>ATOM
      1 C1        -10.9061    3.2206   51.2454 C.3     1  ZINC000150894060   -0.1000
      2 C2        -11.1279    1.7899   51.6640 C.2     1  ZINC000150894060   -0.0800
      3 C3        -10.1723    0.9005   52.0643 C.2     1  ZINC000150894060   -0.1000
      4 C4         -8.7338    1.1680   52.1645 C.2     1  ZINC000150894060    0.6100
      5 O5         -7.9520    0.2462   52.3063 O.2     1  ZINC000150894060   -0.5100
      6 N6         -8.2777    2.4345   52.0995 N.am    1  ZINC000150894060   -0.7200
      7 C7         -6.8406    2.7015   52.1977 C.3     1  ZINC000150894060    0.1200
      8 C8         -6.1518    2.2687   50.9019 C.3     1  ZINC000150894060   -0.1500
      9 C9         -5.0762    3.2914   50.5301 C.3     1  ZINC000150894060    0.1200
     10 N10        -4.0037    2.6241   49.7879 N.am    1  ZINC000150894060   -0.7300
     11 C11        -2.8203    2.3819   50.3855 C.2     1  ZINC000150894060    0.5600
     12 O12        -2.6432    2.7157   51.5409 O.2     1  ZINC000150894060   -0.5300
     13 C13        -1.7374    1.7100   49.6360 C.ar    1  ZINC000150894060   -0.1300
     14 C14        -1.8318    0.3502   49.3360 C.ar    1  ZINC000150894060   -0.0900
     15 C15        -0.8180   -0.2705   48.6357 C.ar    1  ZINC000150894060   -0.0900
     16 C16         0.2907    0.4518   48.2315 C.ar    1  ZINC000150894060   -0.0800
     17 C17         1.3944   -0.2330   47.4675 C.3     1  ZINC000150894060    0.1700
     18 N18         1.5426    0.3975   46.1534 N.pl3   1  ZINC000150894060   -0.3700
     19 C19         2.6292    0.3257   45.3564 C.2     1  ZINC000150894060    0.0500
     20 C20         2.3676    1.0396   44.2370 C.2     1  ZINC000150894060   -0.2700
     21 C21         1.0768    1.5656   44.3539 C.2     1  ZINC000150894060    0.0400
     22 N22         0.5791    1.1763   45.4996 N.2     1  ZINC000150894060   -0.2900
     23 C23         0.3902    1.8001   48.5253 C.ar    1  ZINC000150894060   -0.1100
     24 C24        -0.6189    2.4342   49.2202 C.ar    1  ZINC000150894060   -0.0600
     25 O25       -10.7835   -0.2675   52.3517 O.3     1  ZINC000150894060   -0.1700
     26 C26       -12.1007   -0.1428   52.1444 C.2     1  ZINC000150894060    0.0000
     27 C27       -12.3573    1.1154   51.7235 C.2     1  ZINC000150894060   -0.2300
     28 H28       -10.9725    3.8691   52.1189 H       1  ZINC000150894060    0.0800
     29 H29        -9.9186    3.3184   50.7945 H       1  ZINC000150894060    0.0900
     30 H30       -11.6670    3.5090   50.5201 H       1  ZINC000150894060    0.0700
     31 H31        -8.9010    3.1693   51.9876 H       1  ZINC000150894060    0.4100
     32 H32        -6.6792    3.7677   52.3565 H       1  ZINC000150894060    0.0800
     33 H33        -6.4236    2.1422   53.0352 H       1  ZINC000150894060    0.0800
     34 H34        -5.6903    1.2916   51.0445 H       1  ZINC000150894060    0.0800
     35 H35        -6.8887    2.2091   50.1010 H       1  ZINC000150894060    0.0800
     36 H36        -5.5161    4.0721   49.9096 H       1  ZINC000150894060    0.0800
     37 H37        -4.6679    3.7356   51.4378 H       1  ZINC000150894060    0.0800
     38 H38        -4.1453    2.3566   48.8663 H       1  ZINC000150894060    0.4000
     39 H39        -2.6962   -0.2149   49.6516 H       1  ZINC000150894060    0.1300
     40 H40        -0.8898   -1.3228   48.4030 H       1  ZINC000150894060    0.1300
     41 H41         2.3292   -0.1435   48.0209 H       1  ZINC000150894060    0.1100
     42 H42         1.1477   -1.2870   47.3390 H       1  ZINC000150894060    0.1000
     43 H43         3.5440   -0.2059   45.5734 H       1  ZINC000150894060    0.1700
     44 H44         3.0373    1.1790   43.4013 H       1  ZINC000150894060    0.1500
     45 H45         0.5757    2.1823   43.6225 H       1  ZINC000150894060    0.1800
     46 H46         1.2581    2.3584   48.2066 H       1  ZINC000150894060    0.1300
     47 H47        -0.5401    3.4868   49.4486 H       1  ZINC000150894060    0.1400
     48 H48       -12.8370   -0.9188   52.2931 H       1  ZINC000150894060    0.2100
     49 H49       -13.3256    1.5233   51.4736 H       1  ZINC000150894060    0.1600
@<TRIPOS>BOND
     1     1     2    1
     2     1    28    1
     3     1    29    1
     4     1    30    1
     5     2    27    1
     6     2     3    2
     7     3     4    1
     8     3    25    1
     9     4     5    2
    10     4     6   am
    11     6     7    1
    12     6    31    1
    13     7     8    1
    14     7    32    1
    15     7    33    1
    16     8     9    1
    17     8    34    1
    18     8    35    1
    19     9    10    1
    20     9    36    1
    21     9    37    1
    22    10    11   am
    23    10    38    1
    24    11    12    2
    25    11    13    1
    26    13    24   ar
    27    13    14   ar
    28    14    15   ar
    29    14    39    1
    30    15    16   ar
    31    15    40    1
    32    16    17    1
    33    16    23   ar
    34    17    18    1
    35    17    41    1
    36    17    42    1
    37    18    22    1
    38    18    19    1
    39    19    20    2
    40    19    43    1
    41    20    21    1
    42    20    44    1
    43    21    22    2
    44    21    45    1
    45    23    24   ar
    46    23    46    1
    47    24    47    1
    48    25    26    1
    49    26    27    2
    50    26    48    1
    51    27    49    1
@<TRIPOS>SUBSTRUCTURE
     1 ZINC000150894060        1 TEMP              0 ****  ****    0 ROOT


##########                                Name:    ZINC000460163972
##########                DOCK_Rotatable_Bonds:                   7
##########                         Heavy_Atoms:                  28
##########                    Molecular_Weight:             408.469
##########                DOCK_Rotatable_Bonds:                   7
##########                       Formal_Charge:          -0.0100001
##########                     HBond_Acceptors:                   8
##########                        HBond_Donors:                   2
##########                         Heavy_Atoms:                  28
##########                          Grid_Score:          -29.367212
##########                     Grid_vdw_energy:          -27.804241
##########                      Grid_es_energy:           -1.562970
##########           Internal_energy_repulsive:           47.541943

@<TRIPOS>MOLECULE
ZINC000460163972
 50 52 1 0 0
SMALL
USER_CHARGES


@<TRIPOS>ATOM
      1 C1          1.2963    0.6843   48.2811 C.3     1  ZINC000460163972   -0.1400
      2 C2          0.0387    1.1661   48.9572 C.ar    1  ZINC000460163972    0.0100
      3 C3         -1.0997    0.3817   48.9362 C.ar    1  ZINC000460163972   -0.1300
      4 C4         -2.2542    0.8204   49.5550 C.ar    1  ZINC000460163972   -0.0600
      5 C5         -2.2704    2.0504   50.1989 C.ar    1  ZINC000460163972    0.1100
      6 N6         -3.4380    2.4976   50.8270 N.am    1  ZINC000460163972   -0.6700
      7 C7         -4.5088    2.8489   50.0877 C.2     1  ZINC000460163972    0.5200
      8 O8         -4.4603    2.7774   48.8779 O.2     1  ZINC000460163972   -0.5100
      9 C9         -5.7664    3.3305   50.7642 C.3     1  ZINC000460163972   -0.0700
     10 H10        -5.5034    3.9399   51.6287 H       1  ZINC000460163972    0.1200
     11 C11        -6.5861    4.1677   49.7803 C.3     1  ZINC000460163972   -0.1500
     12 C12        -6.5802    2.1447   51.2144 C.ar    1  ZINC000460163972   -0.0600
     13 C13        -6.3406    0.8966   50.6711 C.ar    1  ZINC000460163972   -0.0700
     14 C14        -7.0860   -0.1927   51.0824 C.ar    1  ZINC000460163972   -0.1200
     15 C15        -8.0728   -0.0342   52.0394 C.ar    1  ZINC000460163972    0.0700
     16 F16        -8.8013   -1.0983   52.4423 F       1  ZINC000460163972   -0.1300
     17 C17        -8.3129    1.2181   52.5849 C.ar    1  ZINC000460163972    0.0700
     18 F18        -9.2758    1.3753   53.5194 F       1  ZINC000460163972   -0.1300
     19 C19        -7.5619    2.3054   52.1746 C.ar    1  ZINC000460163972   -0.1200
     20 C20        -1.1250    2.8359   50.2186 C.ar    1  ZINC000460163972    0.0000
     21 C21        -1.1382    4.1714   50.9168 C.3     1  ZINC000460163972   -0.1500
     22 C22         0.0272    2.3895   49.6022 C.ar    1  ZINC000460163972   -0.6700
     23 S23         1.4809    3.3848   49.6272 S.o2    1  ZINC000460163972    2.7000
     24 O24         2.5814    2.4903   49.5382 O.2     1  ZINC000460163972   -0.9500
     25 O25         1.2605    4.4403   48.7018 O.2     1  ZINC000460163972   -0.9500
     26 N26         1.5687    4.0866   51.1247 N.am    1  ZINC000460163972   -1.0900
     27 C27         1.6507    3.2479   52.3229 C.3     1  ZINC000460163972    0.0800
     28 C28         3.0425    2.9589   52.8890 C.3     1  ZINC000460163972   -0.1800
     29 C29         2.1016    3.9161   53.6234 C.3     1  ZINC000460163972   -0.1900
     30 H30         1.9403    0.1994   49.0148 H       1  ZINC000460163972    0.1000
     31 H31         1.0377   -0.0279   47.4975 H       1  ZINC000460163972    0.0800
     32 H32         1.8208    1.5330   47.8421 H       1  ZINC000460163972    0.0700
     33 H33        -1.0864   -0.5750   48.4352 H       1  ZINC000460163972    0.1400
     34 H34        -3.1432    0.2075   49.5376 H       1  ZINC000460163972    0.1600
     35 H35        -3.4770    2.5548   51.7945 H       1  ZINC000460163972    0.4100
     36 H36        -7.4956    4.5160   50.2696 H       1  ZINC000460163972    0.0800
     37 H37        -5.9974    5.0254   49.4546 H       1  ZINC000460163972    0.0700
     38 H38        -6.8491    3.5583   48.9158 H       1  ZINC000460163972    0.0700
     39 H39        -5.5707    0.7723   49.9241 H       1  ZINC000460163972    0.1400
     40 H40        -6.8983   -1.1673   50.6566 H       1  ZINC000460163972    0.1500
     41 H41        -7.7477    3.2811   52.5989 H       1  ZINC000460163972    0.1500
     42 H42        -0.7314    4.0599   51.9219 H       1  ZINC000460163972    0.1000
     43 H43        -0.5302    4.8809   50.3553 H       1  ZINC000460163972    0.1000
     44 H44        -2.1624    4.5394   50.9780 H       1  ZINC000460163972    0.0700
     45 H45         1.5658    5.0530   51.2082 H       1  ZINC000460163972    0.4200
     46 H46         0.9035    2.4577   52.3958 H       1  ZINC000460163972    0.1300
     47 H47         3.2111    1.9785   53.3344 H       1  ZINC000460163972    0.1100
     48 H48         3.8971    3.3929   52.3699 H       1  ZINC000460163972    0.1000
     49 H49         2.3370    4.9797   53.5873 H       1  ZINC000460163972    0.1000
     50 H50         1.6510    3.5653   54.5519 H       1  ZINC000460163972    0.1000
@<TRIPOS>BOND
     1     1     2    1
     2     1    30    1
     3     1    31    1
     4     1    32    1
     5     2    22   ar
     6     2     3   ar
     7     3     4   ar
     8     3    33    1
     9     4     5   ar
    10     4    34    1
    11     5     6    1
    12     5    20   ar
    13     6     7   am
    14     6    35    1
    15     7     8    2
    16     7     9    1
    17     9    10    1
    18     9    11    1
    19     9    12    1
    20    11    36    1
    21    11    37    1
    22    11    38    1
    23    12    19   ar
    24    12    13   ar
    25    13    14   ar
    26    13    39    1
    27    14    15   ar
    28    14    40    1
    29    15    16    1
    30    15    17   ar
    31    17    18    1
    32    17    19   ar
    33    19    41    1
    34    20    21    1
    35    20    22   ar
    36    21    42    1
    37    21    43    1
    38    21    44    1
    39    22    23    1
    40    23    24    2
    41    23    25    2
    42    23    26   am
    43    26    27    1
    44    26    45    1
    45    27    29    1
    46    27    28    1
    47    27    46    1
    48    28    29    1
    49    28    47    1
    50    28    48    1
    51    29    49    1
    52    29    50    1
@<TRIPOS>SUBSTRUCTURE
     1 ZINC000460163972        1 TEMP              0 ****  ****    0 ROOT


##########                                Name:    ZINC000646817380
##########                DOCK_Rotatable_Bonds:                   6
##########                         Heavy_Atoms:                  25
##########                    Molecular_Weight:             347.457
##########                DOCK_Rotatable_Bonds:                   6
##########                       Formal_Charge:           0.0199991
##########                     HBond_Acceptors:                   6
##########                        HBond_Donors:                   1
##########                         Heavy_Atoms:                  25
##########                          Grid_Score:          -29.329639
##########                     Grid_vdw_energy:          -29.048729
##########                      Grid_es_energy:           -0.280910
##########           Internal_energy_repulsive:           64.888412

@<TRIPOS>MOLECULE
ZINC000646817380
 54 56 1 0 0
SMALL
USER_CHARGES


@<TRIPOS>ATOM
      1 C1        -10.2474    2.2263   52.7862 C.3     1  ZINC000646817380   -0.1500
      2 C2         -9.3659    0.9937   52.9975 C.3     1  ZINC000646817380   -0.0100
      3 C3         -9.9363   -0.1833   52.2037 C.3     1  ZINC000646817380   -0.1500
      4 C4         -7.9667    1.2892   52.5221 C.2     1  ZINC000646817380   -0.0100
      5 C5         -7.3514    2.4936   52.5201 C.2     1  ZINC000646817380   -0.2200
      6 C6         -6.0667    2.2209   51.9788 C.2     1  ZINC000646817380    0.2400
      7 N7         -5.0378    3.1361   51.7641 N.am    1  ZINC000646817380   -0.6100
      8 C8         -3.8435    2.7120   51.3058 C.2     1  ZINC000646817380    0.5200
      9 O9         -3.6633    1.5330   51.0817 O.2     1  ZINC000646817380   -0.4900
     10 C10        -2.7412    3.6932   51.0740 C.2     1  ZINC000646817380    0.5300
     11 O11        -2.7399    4.7545   51.6625 O.2     1  ZINC000646817380   -0.5100
     12 N12        -1.7482    3.3998   50.2113 N.am    1  ZINC000646817380   -0.5800
     13 C13        -0.6072    4.2696   49.8903 C.3     1  ZINC000646817380    0.1000
     14 C14         0.2504    3.5317   48.8407 C.3     1  ZINC000646817380   -0.1300
     15 C15        -0.7556    2.5332   48.2097 C.3     1  ZINC000646817380   -0.1000
     16 H16        -1.3555    3.0175   47.4391 H       1  ZINC000646817380    0.1000
     17 C17        -0.0325    1.3074   47.6482 C.3     1  ZINC000646817380   -0.0700
     18 H18         0.8756    1.1155   48.2197 H       1  ZINC000646817380    0.0800
     19 C19        -0.9604    0.0761   47.7012 C.3     1  ZINC000646817380   -0.1300
     20 C20        -0.6329   -0.7026   46.4030 C.3     1  ZINC000646817380   -0.1300
     21 C21        -0.4153    0.4310   45.3702 C.3     1  ZINC000646817380   -0.1200
     22 C22         0.3153    1.5335   46.1664 C.3     1  ZINC000646817380   -0.0700
     23 C23        -0.1714    2.9132   45.7185 C.3     1  ZINC000646817380   -0.1600
     24 C24         1.8265    1.4169   45.9575 C.3     1  ZINC000646817380   -0.1400
     25 C25        -1.6230    2.1510   49.4378 C.3     1  ZINC000646817380    0.0900
     26 N26        -6.0432    0.9390   51.7227 N.2     1  ZINC000646817380   -0.3800
     27 O27        -7.0871    0.4084   52.0240 O.3     1  ZINC000646817380    0.1100
     28 H28       -11.2593    2.0125   53.1301 H       1  ZINC000646817380    0.0700
     29 H29        -9.8410    3.0649   53.3517 H       1  ZINC000646817380    0.0600
     30 H30       -10.2696    2.4797   51.7262 H       1  ZINC000646817380    0.0600
     31 H31        -9.3437    0.7403   54.0574 H       1  ZINC000646817380    0.1100
     32 H32        -9.9586    0.0700   51.1437 H       1  ZINC000646817380    0.0600
     33 H33        -9.3084   -1.0614   52.3542 H       1  ZINC000646817380    0.0600
     34 H34       -10.9484   -0.3970   52.5476 H       1  ZINC000646817380    0.0700
     35 H35        -7.7455    3.4425   52.8527 H       1  ZINC000646817380    0.1900
     36 H36        -5.1814    4.0783   51.9444 H       1  ZINC000646817380    0.4300
     37 H37        -0.9648    5.2138   49.4795 H       1  ZINC000646817380    0.0800
     38 H38        -0.0172    4.4534   50.7882 H       1  ZINC000646817380    0.0800
     39 H39         0.6249    4.2280   48.0903 H       1  ZINC000646817380    0.0900
     40 H40         1.0727    3.0000   49.3194 H       1  ZINC000646817380    0.0800
     41 H41        -0.7373   -0.5323   48.5776 H       1  ZINC000646817380    0.0700
     42 H42        -2.0055    0.3860   47.7068 H       1  ZINC000646817380    0.0800
     43 H43         0.2750   -1.2932   46.5254 H       1  ZINC000646817380    0.0700
     44 H44        -1.4705   -1.3359   46.1107 H       1  ZINC000646817380    0.0700
     45 H45         0.2059    0.0815   44.5454 H       1  ZINC000646817380    0.0700
     46 H46        -1.3722    0.7982   44.9992 H       1  ZINC000646817380    0.0700
     47 H47        -1.2440    2.8760   45.5283 H       1  ZINC000646817380    0.0700
     48 H48         0.0336    3.6427   46.5021 H       1  ZINC000646817380    0.0600
     49 H49         0.3496    3.2038   44.8063 H       1  ZINC000646817380    0.0500
     50 H50         2.0590    1.5538   44.9015 H       1  ZINC000646817380    0.0600
     51 H51         2.3344    2.1828   46.5436 H       1  ZINC000646817380    0.0500
     52 H52         2.1626    0.4311   46.2787 H       1  ZINC000646817380    0.0600
     53 H53        -1.1262    1.3811   50.0283 H       1  ZINC000646817380    0.0900
     54 H54        -2.6061    1.8079   49.1158 H       1  ZINC000646817380    0.1000
@<TRIPOS>BOND
     1     1     2    1
     2     1    28    1
     3     1    29    1
     4     1    30    1
     5     2     3    1
     6     2     4    1
     7     2    31    1
     8     3    32    1
     9     3    33    1
    10     3    34    1
    11     4    27    1
    12     4     5    2
    13     5     6    1
    14     5    35    1
    15     6     7    1
    16     6    26    2
    17     7     8   am
    18     7    36    1
    19     8     9    2
    20     8    10    1
    21    10    11    2
    22    10    12   am
    23    12    25    1
    24    12    13    1
    25    13    14    1
    26    13    37    1
    27    13    38    1
    28    14    15    1
    29    14    39    1
    30    14    40    1
    31    15    16    1
    32    15    17    1
    33    15    25    1
    34    17    18    1
    35    17    22    1
    36    17    19    1
    37    19    20    1
    38    19    41    1
    39    19    42    1
    40    20    21    1
    41    20    43    1
    42    20    44    1
    43    21    22    1
    44    21    45    1
    45    21    46    1
    46    22    23    1
    47    22    24    1
    48    23    47    1
    49    23    48    1
    50    23    49    1
    51    24    50    1
    52    24    51    1
    53    24    52    1
    54    25    53    1
    55    25    54    1
    56    26    27    1
@<TRIPOS>SUBSTRUCTURE
     1 ZINC000646817380        1 TEMP              0 ****  ****    0 ROOT


##########                                Name:    ZINC000547864253
##########                DOCK_Rotatable_Bonds:                   6
##########                         Heavy_Atoms:                  30
##########                    Molecular_Weight:             422.548
##########                DOCK_Rotatable_Bonds:                   6
##########                       Formal_Charge:           0.0300002
##########                     HBond_Acceptors:                   6
##########                        HBond_Donors:                   2
##########                         Heavy_Atoms:                  30
##########                          Grid_Score:          -29.287235
##########                     Grid_vdw_energy:          -24.342207
##########                      Grid_es_energy:           -4.945027
##########           Internal_energy_repulsive:           12.066895

@<TRIPOS>MOLECULE
ZINC000547864253
 56 60 1 0 0
SMALL
USER_CHARGES


@<TRIPOS>ATOM
      1 O1        -12.5296   -2.6278   59.7490 O.2     1  ZINC000547864253   -0.5300
      2 C2        -12.2148   -2.4817   58.5869 C.2     1  ZINC000547864253    0.5400
      3 N3        -10.9828   -2.0338   58.2737 N.am    1  ZINC000547864253   -0.7200
      4 C4        -10.0261   -1.7177   59.3372 C.3     1  ZINC000547864253    0.1300
      5 C5        -10.2056   -0.2607   59.7683 C.3     1  ZINC000547864253    0.0200
      6 H6        -11.2636   -0.0592   59.9361 H       1  ZINC000547864253    0.0900
      7 C7         -9.4393   -0.0157   61.0425 C.2     1  ZINC000547864253   -0.1600
      8 C8         -8.2535   -0.5490   61.3762 C.2     1  ZINC000547864253    0.0600
      9 N9         -7.8685   -0.0961   62.6087 N.pl3   1  ZINC000547864253   -0.5900
     10 C10        -8.8215    0.7615   63.1111 C.ar    1  ZINC000547864253    0.1000
     11 C11        -8.9303    1.4855   64.2935 C.ar    1  ZINC000547864253   -0.1300
     12 C12       -10.0367    2.2773   64.5118 C.ar    1  ZINC000547864253   -0.1000
     13 C13       -11.0457    2.3606   63.5628 C.ar    1  ZINC000547864253   -0.1400
     14 C14       -10.9593    1.6578   62.3939 C.ar    1  ZINC000547864253   -0.0700
     15 C15        -9.8443    0.8544   62.1493 C.ar    1  ZINC000547864253   -0.1000
     16 C16        -9.6861    0.6509   58.6865 C.ar    1  ZINC000547864253   -0.0700
     17 C17        -8.3246    0.8318   58.5300 C.ar    1  ZINC000547864253   -0.1100
     18 C18        -7.8480    1.6680   57.5378 C.ar    1  ZINC000547864253   -0.1200
     19 C19        -8.7330    2.3229   56.7017 C.ar    1  ZINC000547864253   -0.1200
     20 C20       -10.0944    2.1412   56.8576 C.ar    1  ZINC000547864253   -0.1100
     21 C21       -10.5708    1.3017   57.8471 C.ar    1  ZINC000547864253   -0.1200
     22 C22       -13.1990   -2.8068   57.4929 C.3     1  ZINC000547864253   -0.1700
     23 H23       -13.3639   -3.8685   57.3093 H       1  ZINC000547864253    0.1400
     24 C24       -13.2530   -1.8649   56.2887 C.3     1  ZINC000547864253   -0.1300
     25 C25       -14.3921   -1.8645   57.3125 C.3     1  ZINC000547864253   -0.1400
     26 C26       -15.7216   -2.4882   56.8859 C.3     1  ZINC000547864253   -0.0700
     27 C27       -16.5217   -1.4810   56.0570 C.3     1  ZINC000547864253   -0.6000
     28 S28       -16.8609   -0.0114   57.0676 S.o2    1  ZINC000547864253    2.4200
     29 O29       -17.4202    0.9940   56.2335 O.2     1  ZINC000547864253   -0.9400
     30 O30       -17.5630   -0.4154   58.2350 O.2     1  ZINC000547864253   -0.9300
     31 C31       -15.1843    0.4971   57.5441 C.3     1  ZINC000547864253   -0.6000
     32 C32       -14.4892   -0.6653   58.2565 C.3     1  ZINC000547864253   -0.0700
     33 H33       -10.7296   -1.9207   57.3442 H       1  ZINC000547864253    0.4000
     34 H34       -10.2013   -2.3732   60.1902 H       1  ZINC000547864253    0.0800
     35 H35        -9.0110   -1.8650   58.9683 H       1  ZINC000547864253    0.0700
     36 H36        -7.6872   -1.2342   60.7628 H       1  ZINC000547864253    0.1700
     37 H37        -7.0466   -0.3425   63.0611 H       1  ZINC000547864253    0.4200
     38 H38        -8.1504    1.4269   65.0384 H       1  ZINC000547864253    0.1200
     39 H39       -10.1195    2.8384   65.4308 H       1  ZINC000547864253    0.1300
     40 H40       -11.9065    2.9857   63.7496 H       1  ZINC000547864253    0.1200
     41 H41       -11.7485    1.7276   61.6599 H       1  ZINC000547864253    0.1200
     42 H42        -7.6333    0.3202   59.1833 H       1  ZINC000547864253    0.1200
     43 H43        -6.7843    1.8100   57.4160 H       1  ZINC000547864253    0.1200
     44 H44        -8.3607    2.9767   55.9269 H       1  ZINC000547864253    0.1200
     45 H45       -10.7858    2.6531   56.2046 H       1  ZINC000547864253    0.1200
     46 H46       -11.6345    1.1597   57.9689 H       1  ZINC000547864253    0.1200
     47 H47       -12.5768   -1.0101   56.2876 H       1  ZINC000547864253    0.1100
     48 H48       -13.4538   -2.3069   55.3128 H       1  ZINC000547864253    0.1100
     49 H49       -15.5291   -3.3787   56.2876 H       1  ZINC000547864253    0.0900
     50 H50       -16.2935   -2.7642   57.7719 H       1  ZINC000547864253    0.0900
     51 H51       -15.9450   -1.1933   55.1780 H       1  ZINC000547864253    0.1400
     52 H52       -17.4630   -1.9330   55.7441 H       1  ZINC000547864253    0.1400
     53 H53       -14.6188    0.7684   56.6527 H       1  ZINC000547864253    0.1400
     54 H54       -15.2407    1.3541   58.2153 H       1  ZINC000547864253    0.1400
     55 H55       -15.0634   -0.9446   59.1398 H       1  ZINC000547864253    0.0900
     56 H56       -13.4875   -0.3589   58.5578 H       1  ZINC000547864253    0.0900
@<TRIPOS>BOND
     1     1     2    2
     2     2     3   am
     3     2    22    1
     4     3     4    1
     5     3    33    1
     6     4     5    1
     7     4    34    1
     8     4    35    1
     9     5     6    1
    10     5     7    1
    11     5    16    1
    12     7    15    1
    13     7     8    2
    14     8     9    1
    15     8    36    1
    16     9    10    1
    17     9    37    1
    18    10    15   ar
    19    10    11   ar
    20    11    12   ar
    21    11    38    1
    22    12    13   ar
    23    12    39    1
    24    13    14   ar
    25    13    40    1
    26    14    15   ar
    27    14    41    1
    28    16    21   ar
    29    16    17   ar
    30    17    18   ar
    31    17    42    1
    32    18    19   ar
    33    18    43    1
    34    19    20   ar
    35    19    44    1
    36    20    21   ar
    37    20    45    1
    38    21    46    1
    39    22    23    1
    40    22    25    1
    41    22    24    1
    42    24    25    1
    43    24    47    1
    44    24    48    1
    45    25    32    1
    46    25    26    1
    47    26    27    1
    48    26    49    1
    49    26    50    1
    50    27    28    1
    51    27    51    1
    52    27    52    1
    53    28    29    2
    54    28    30    2
    55    28    31    1
    56    31    32    1
    57    31    53    1
    58    31    54    1
    59    32    55    1
    60    32    56    1
@<TRIPOS>SUBSTRUCTURE
     1 ZINC000547864253        1 TEMP              0 ****  ****    0 ROOT


##########                                Name:    ZINC000182378855
##########                DOCK_Rotatable_Bonds:                   8
##########                         Heavy_Atoms:                  27
##########                    Molecular_Weight:              394.83
##########                DOCK_Rotatable_Bonds:                   8
##########                       Formal_Charge:          -0.0200001
##########                     HBond_Acceptors:                   8
##########                        HBond_Donors:                   1
##########                         Heavy_Atoms:                  27
##########                          Grid_Score:          -29.265556
##########                     Grid_vdw_energy:          -28.794605
##########                      Grid_es_energy:           -0.470950
##########           Internal_energy_repulsive:           11.735853

@<TRIPOS>MOLECULE
ZINC000182378855
 47 49 1 0 0
SMALL
USER_CHARGES


@<TRIPOS>ATOM
      1 C1         -7.0425   -0.6784   51.4649 C.3     1  ZINC000182378855    0.0300
      2 O2         -7.5830    0.2699   52.3873 O.3     1  ZINC000182378855   -0.3900
      3 C3         -6.8404    1.4879   52.4708 C.3     1  ZINC000182378855    0.0600
      4 C4         -6.9694    2.2553   51.1535 C.3     1  ZINC000182378855    0.0700
      5 O5         -6.2446    3.4835   51.2447 O.3     1  ZINC000182378855   -0.2900
      6 C6         -4.8906    3.4043   51.2047 C.ar    1  ZINC000182378855    0.3300
      7 C7         -4.2692    2.8251   50.1065 C.ar    1  ZINC000182378855   -0.1300
      8 C8         -2.8753    2.7508   50.0800 C.ar    1  ZINC000182378855   -0.0600
      9 C9         -2.1676    2.1421   48.9294 C.2     1  ZINC000182378855    0.5600
     10 O10        -2.6950    2.1190   47.8349 O.2     1  ZINC000182378855   -0.5200
     11 N11        -0.9390    1.6140   49.0967 N.am    1  ZINC000182378855   -0.7100
     12 C12        -0.2385    1.0137   47.9585 C.3     1  ZINC000182378855    0.1200
     13 H13        -0.2845    1.6733   47.0920 H       1  ZINC000182378855    0.1100
     14 C14        -0.8411   -0.3682   47.6196 C.3     1  ZINC000182378855   -0.1700
     15 C15         0.3334   -1.3504   47.8252 C.3     1  ZINC000182378855    0.0400
     16 O16         1.2186   -0.6791   48.7481 O.3     1  ZINC000182378855   -0.3600
     17 C17         1.2287    0.7029   48.3288 C.3     1  ZINC000182378855    0.1100
     18 H18         1.8745    0.8312   47.4601 H       1  ZINC000182378855    0.1000
     19 C19         1.6841    1.5905   49.4583 C.ar    1  ZINC000182378855   -0.0500
     20 C20         1.7920    1.0793   50.7379 C.ar    1  ZINC000182378855   -0.1100
     21 C21         2.2150    1.8907   51.7744 C.ar    1  ZINC000182378855   -0.0800
     22 C22         2.5199    3.2178   51.5337 C.ar    1  ZINC000182378855   -0.0700
     23 Cl23        3.0449    4.2385   52.8361 Cl      1  ZINC000182378855   -0.0400
     24 C24         2.4065    3.7324   50.2519 C.ar    1  ZINC000182378855    0.1200
     25 F25         2.7044    5.0286   50.0148 F       1  ZINC000182378855   -0.1200
     26 C26         1.9882    2.9169   49.2147 C.ar    1  ZINC000182378855   -0.1300
     27 C27        -2.1645    3.2671   51.1692 C.ar    1  ZINC000182378855   -0.1900
     28 C28        -2.8606    3.8264   52.2216 C.ar    1  ZINC000182378855    0.1400
     29 N29        -4.1781    3.8841   52.2095 N.ar    1  ZINC000182378855   -0.5200
     30 H30        -6.0280   -0.9401   51.7657 H       1  ZINC000182378855    0.0400
     31 H31        -7.6627   -1.5746   51.4600 H       1  ZINC000182378855    0.0900
     32 H32        -7.0244   -0.2435   50.4656 H       1  ZINC000182378855    0.0400
     33 H33        -7.2316    2.0968   53.2859 H       1  ZINC000182378855    0.0600
     34 H34        -5.7907    1.2614   52.6580 H       1  ZINC000182378855    0.0700
     35 H35        -6.5632    1.6532   50.3408 H       1  ZINC000182378855    0.0800
     36 H36        -8.0206    2.4676   50.9581 H       1  ZINC000182378855    0.0800
     37 H37        -4.8548    2.4378   49.2858 H       1  ZINC000182378855    0.1600
     38 H38        -0.5186    1.6313   49.9706 H       1  ZINC000182378855    0.4000
     39 H39        -1.6601   -0.6046   48.2989 H       1  ZINC000182378855    0.0900
     40 H40        -1.1826   -0.3925   46.5849 H       1  ZINC000182378855    0.0900
     41 H41        -0.0249   -2.2855   48.2553 H       1  ZINC000182378855    0.1000
     42 H42         0.8408   -1.5385   46.8790 H       1  ZINC000182378855    0.0700
     43 H43         1.5494    0.0441   50.9275 H       1  ZINC000182378855    0.1500
     44 H44         2.3031    1.4890   52.7730 H       1  ZINC000182378855    0.1500
     45 H45         1.8998    3.3166   48.2153 H       1  ZINC000182378855    0.1500
     46 H46        -1.0853    3.2286   51.1859 H       1  ZINC000182378855    0.1400
     47 H47        -2.3182    4.2267   53.0653 H       1  ZINC000182378855    0.1700
@<TRIPOS>BOND
     1     1     2    1
     2     1    30    1
     3     1    31    1
     4     1    32    1
     5     2     3    1
     6     3     4    1
     7     3    33    1
     8     3    34    1
     9     4     5    1
    10     4    35    1
    11     4    36    1
    12     5     6    1
    13     6    29   ar
    14     6     7   ar
    15     7     8   ar
    16     7    37    1
    17     8     9    1
    18     8    27   ar
    19     9    10    2
    20     9    11   am
    21    11    12    1
    22    11    38    1
    23    12    13    1
    24    12    17    1
    25    12    14    1
    26    14    15    1
    27    14    39    1
    28    14    40    1
    29    15    16    1
    30    15    41    1
    31    15    42    1
    32    16    17    1
    33    17    18    1
    34    17    19    1
    35    19    26   ar
    36    19    20   ar
    37    20    21   ar
    38    20    43    1
    39    21    22   ar
    40    21    44    1
    41    22    23    1
    42    22    24   ar
    43    24    25    1
    44    24    26   ar
    45    26    45    1
    46    27    28   ar
    47    27    46    1
    48    28    29   ar
    49    28    47    1
@<TRIPOS>SUBSTRUCTURE
     1 ZINC000182378855        1 TEMP              0 ****  ****    0 ROOT


##########                                Name:    ZINC000629379364
##########                DOCK_Rotatable_Bonds:                   5
##########                         Heavy_Atoms:                  23
##########                    Molecular_Weight:             386.261
##########                DOCK_Rotatable_Bonds:                   5
##########                       Formal_Charge:               -0.02
##########                     HBond_Acceptors:                   5
##########                        HBond_Donors:                   1
##########                         Heavy_Atoms:                  23
##########                          Grid_Score:          -29.223705
##########                     Grid_vdw_energy:          -24.888897
##########                      Grid_es_energy:           -4.334808
##########           Internal_energy_repulsive:           25.817541

@<TRIPOS>MOLECULE
ZINC000629379364
 44 46 1 0 0
SMALL
USER_CHARGES


@<TRIPOS>ATOM
      1 O1        -15.5508    0.2526   59.8293 O.co2   1  ZINC000629379364   -0.6800
      2 C2        -14.3342    0.2683   59.9063 C.2     1  ZINC000629379364    0.5000
      3 O3        -13.7401    1.3319   59.9553 O.co2   1  ZINC000629379364   -0.6900
      4 C4        -13.5649   -1.0269   59.9471 C.3     1  ZINC000629379364   -0.1600
      5 H5        -14.2496   -1.8618   60.0965 H       1  ZINC000629379364    0.0800
      6 C6        -12.5284   -0.9872   61.0837 C.3     1  ZINC000629379364   -0.1300
      7 C7        -11.6365   -2.2249   61.0605 C.3     1  ZINC000629379364   -0.0100
      8 N8        -10.9930   -2.4125   59.7459 N.4     1  ZINC000629379364   -0.3700
      9 H9        -10.4127   -3.2377   59.7629 H       1  ZINC000629379364    0.4200
     10 C10       -10.1774   -1.2358   59.4169 C.3     1  ZINC000629379364   -0.0200
     11 C11        -8.7014   -1.5529   59.6646 C.3     1  ZINC000629379364    0.0300
     12 O12        -8.3724   -1.2581   61.0236 O.3     1  ZINC000629379364   -0.3200
     13 C13        -8.3204    0.0535   61.3753 C.ar    1  ZINC000629379364    0.1600
     14 C14        -8.0884    0.4098   62.6953 C.ar    1  ZINC000629379364   -0.2300
     15 C15        -8.0358    1.7461   63.0511 C.ar    1  ZINC000629379364    0.1500
     16 F16        -7.8098    2.0943   64.3368 F       1  ZINC000629379364   -0.1200
     17 C17        -8.2143    2.7264   62.0897 C.ar    1  ZINC000629379364   -0.1600
     18 C18        -8.4463    2.3717   60.7727 C.ar    1  ZINC000629379364   -0.0300
     19 Br19       -8.6896    3.7130   59.4621 Br      1  ZINC000629379364   -0.0100
     20 C20        -8.4936    1.0380   60.4129 C.ar    1  ZINC000629379364   -0.1300
     21 C21       -12.0511   -2.5729   58.7616 C.3     1  ZINC000629379364   -0.0100
     22 H22       -12.7436   -3.3514   59.0817 H       1  ZINC000629379364    0.1400
     23 C23       -11.6039   -2.8291   57.3187 C.3     1  ZINC000629379364   -0.1300
     24 C24       -12.8352   -2.3786   56.4865 C.3     1  ZINC000629379364   -0.1200
     25 C25       -13.6129   -1.3704   57.3678 C.3     1  ZINC000629379364   -0.1100
     26 C26       -12.7937   -1.2137   58.6519 C.3     1  ZINC000629379364   -0.0700
     27 H27       -12.0547   -0.4222   58.5270 H       1  ZINC000629379364    0.1000
     28 H28       -11.9084   -0.0979   60.9709 H       1  ZINC000629379364    0.0800
     29 H29       -13.0487   -0.9398   62.0403 H       1  ZINC000629379364    0.1100
     30 H30       -10.8639   -2.1201   61.8223 H       1  ZINC000629379364    0.1200
     31 H31       -12.2411   -3.1026   61.2884 H       1  ZINC000629379364    0.1300
     32 H32       -10.3221   -0.9751   58.3685 H       1  ZINC000629379364    0.1400
     33 H33       -10.4793   -0.3975   60.0448 H       1  ZINC000629379364    0.1700
     34 H34        -8.5186   -2.6092   59.4674 H       1  ZINC000629379364    0.1100
     35 H35        -8.0834   -0.9473   59.0017 H       1  ZINC000629379364    0.0900
     36 H36        -7.9491   -0.3551   63.4450 H       1  ZINC000629379364    0.1500
     37 H37        -8.1727    3.7690   62.3682 H       1  ZINC000629379364    0.1500
     38 H38        -8.6744    0.7621   59.3845 H       1  ZINC000629379364    0.1500
     39 H39       -10.7306   -2.2250   57.0727 H       1  ZINC000629379364    0.0800
     40 H40       -11.3986   -3.8879   57.1609 H       1  ZINC000629379364    0.0900
     41 H41       -12.5080   -1.8959   55.5657 H       1  ZINC000629379364    0.0800
     42 H42       -13.4652   -3.2376   56.2558 H       1  ZINC000629379364    0.0800
     43 H43       -13.7110   -0.4153   56.8518 H       1  ZINC000629379364    0.0900
     44 H44       -14.5966   -1.7680   57.6177 H       1  ZINC000629379364    0.0800
@<TRIPOS>BOND
     1     1     2   ar
     2     2     3   ar
     3     2     4    1
     4     4     5    1
     5     4    26    1
     6     4     6    1
     7     6     7    1
     8     6    28    1
     9     6    29    1
    10     7     8    1
    11     7    30    1
    12     7    31    1
    13     8     9    1
    14     8    10    1
    15     8    21    1
    16    10    11    1
    17    10    32    1
    18    10    33    1
    19    11    12    1
    20    11    34    1
    21    11    35    1
    22    12    13    1
    23    13    20   ar
    24    13    14   ar
    25    14    15   ar
    26    14    36    1
    27    15    16    1
    28    15    17   ar
    29    17    18   ar
    30    17    37    1
    31    18    19    1
    32    18    20   ar
    33    20    38    1
    34    21    22    1
    35    21    26    1
    36    21    23    1
    37    23    24    1
    38    23    39    1
    39    23    40    1
    40    24    25    1
    41    24    41    1
    42    24    42    1
    43    25    26    1
    44    25    43    1
    45    25    44    1
    46    26    27    1
@<TRIPOS>SUBSTRUCTURE
     1 ZINC000629379364        1 TEMP              0 ****  ****    0 ROOT


##########                                Name:    ZINC000581017854
##########                DOCK_Rotatable_Bonds:                   6
##########                         Heavy_Atoms:                  24
##########                    Molecular_Weight:             330.334
##########                DOCK_Rotatable_Bonds:                   6
##########                       Formal_Charge:           0.0099998
##########                     HBond_Acceptors:                   6
##########                        HBond_Donors:                   2
##########                         Heavy_Atoms:                  24
##########                          Grid_Score:          -29.223547
##########                     Grid_vdw_energy:          -29.865887
##########                      Grid_es_energy:            0.642339
##########           Internal_energy_repulsive:            9.718669

@<TRIPOS>MOLECULE
ZINC000581017854
 40 42 1 0 0
SMALL
USER_CHARGES


@<TRIPOS>ATOM
      1 C1         -3.2873    3.2830   51.6154 C.3     1  ZINC000581017854   -0.1600
      2 C2         -4.1780    3.0100   50.4016 C.3     1  ZINC000581017854    0.1500
      3 H3         -4.7595    3.9023   50.1696 H       1  ZINC000581017854    0.1100
      4 C4         -3.3045    2.6438   49.2001 C.3     1  ZINC000581017854    0.0500
      5 O5         -2.6558    1.3944   49.4459 O.3     1  ZINC000581017854   -0.3100
      6 C6         -1.9308    0.8645   48.4260 C.ar    1  ZINC000581017854    0.1600
      7 C7         -1.8259    1.5450   47.2216 C.ar    1  ZINC000581017854   -0.2200
      8 C8         -1.0883    1.0052   46.1852 C.ar    1  ZINC000581017854   -0.0500
      9 C9         -0.4551   -0.2126   46.3465 C.ar    1  ZINC000581017854   -0.1900
     10 C10        -0.5580   -0.8951   47.5474 C.ar    1  ZINC000581017854    0.1400
     11 F11         0.0618   -2.0854   47.7032 F       1  ZINC000581017854   -0.1300
     12 C12        -1.2900   -0.3548   48.5897 C.ar    1  ZINC000581017854   -0.1900
     13 N13        -5.0858    1.9000   50.7018 N.am    1  ZINC000581017854   -0.7300
     14 C14        -6.3104    2.1487   51.2065 C.2     1  ZINC000581017854    0.5900
     15 O15        -6.6617    3.2949   51.4141 O.2     1  ZINC000581017854   -0.5400
     16 C16        -7.2215    1.0357   51.5060 C.2     1  ZINC000581017854   -0.2200
     17 C17        -7.0672   -0.2674   51.1355 C.2     1  ZINC000581017854    0.1100
     18 N18        -8.1100   -1.0010   51.5947 N.pl3   1  ZINC000581017854   -0.5700
     19 C19        -8.9937   -0.2002   52.2886 C.ar    1  ZINC000581017854    0.1100
     20 C20       -10.1941   -0.4531   52.9436 C.ar    1  ZINC000581017854   -0.1600
     21 C21       -10.8702    0.5778   53.5638 C.ar    1  ZINC000581017854    0.1200
     22 F22       -12.0358    0.3275   54.1993 F       1  ZINC000581017854   -0.1400
     23 C23       -10.3624    1.8707   53.5408 C.ar    1  ZINC000581017854   -0.1700
     24 C24        -9.1745    2.1390   52.8965 C.ar    1  ZINC000581017854   -0.0300
     25 C25        -8.4798    1.1065   52.2720 C.ar    1  ZINC000581017854   -0.0700
     26 H26        -2.6119    4.1088   51.3920 H       1  ZINC000581017854    0.0700
     27 H27        -3.9096    3.5438   52.4713 H       1  ZINC000581017854    0.0700
     28 H28        -2.7059    2.3907   51.8474 H       1  ZINC000581017854    0.0700
     29 H29        -3.9278    2.5604   48.3097 H       1  ZINC000581017854    0.0700
     30 H30        -2.5538    3.4190   49.0469 H       1  ZINC000581017854    0.0800
     31 H31        -2.3207    2.4964   47.0940 H       1  ZINC000581017854    0.1400
     32 H32        -1.0070    1.5355   45.2478 H       1  ZINC000581017854    0.1400
     33 H33         0.1206   -0.6327   45.5350 H       1  ZINC000581017854    0.1400
     34 H34        -1.3704   -0.8863   49.5264 H       1  ZINC000581017854    0.1400
     35 H35        -4.8054    0.9861   50.5375 H       1  ZINC000581017854    0.4000
     36 H36        -6.2386   -0.6564   50.5624 H       1  ZINC000581017854    0.1800
     37 H37        -8.2201   -1.9546   51.4547 H       1  ZINC000581017854    0.4200
     38 H38       -10.5969   -1.4549   52.9666 H       1  ZINC000581017854    0.1400
     39 H39       -10.9013    2.6688   54.0295 H       1  ZINC000581017854    0.1400
     40 H40        -8.7819    3.1449   52.8795 H       1  ZINC000581017854    0.1500
@<TRIPOS>BOND
     1     1     2    1
     2     1    26    1
     3     1    27    1
     4     1    28    1
     5     2     3    1
     6     2     4    1
     7     2    13    1
     8     4     5    1
     9     4    29    1
    10     4    30    1
    11     5     6    1
    12     6    12   ar
    13     6     7   ar
    14     7     8   ar
    15     7    31    1
    16     8     9   ar
    17     8    32    1
    18     9    10   ar
    19     9    33    1
    20    10    11    1
    21    10    12   ar
    22    12    34    1
    23    13    14   am
    24    13    35    1
    25    14    15    2
    26    14    16    1
    27    16    25    1
    28    16    17    2
    29    17    18    1
    30    17    36    1
    31    18    19    1
    32    18    37    1
    33    19    25   ar
    34    19    20   ar
    35    20    21   ar
    36    20    38    1
    37    21    22    1
    38    21    23   ar
    39    23    24   ar
    40    23    39    1
    41    24    25   ar
    42    24    40    1
@<TRIPOS>SUBSTRUCTURE
     1 ZINC000581017854        1 TEMP              0 ****  ****    0 ROOT


##########                                Name:    ZINC000443394081
##########                DOCK_Rotatable_Bonds:                   8
##########                         Heavy_Atoms:                  27
##########                    Molecular_Weight:             389.878
##########                DOCK_Rotatable_Bonds:                   8
##########                       Formal_Charge:          -0.0300003
##########                     HBond_Acceptors:                   6
##########                        HBond_Donors:                   1
##########                         Heavy_Atoms:                  27
##########                          Grid_Score:          -29.203741
##########                     Grid_vdw_energy:          -28.163723
##########                      Grid_es_energy:           -1.040018
##########           Internal_energy_repulsive:           36.493805

@<TRIPOS>MOLECULE
ZINC000443394081
 51 53 1 0 0
SMALL
USER_CHARGES


@<TRIPOS>ATOM
      1 C1          0.0908    3.5244   45.8143 C.3     1  ZINC000443394081    0.0200
      2 O2         -1.0859    2.7140   45.8436 O.3     1  ZINC000443394081   -0.3000
      3 C3         -1.4252    2.1612   47.0388 C.ar    1  ZINC000443394081    0.1000
      4 C4         -1.6998    2.9728   48.1220 C.ar    1  ZINC000443394081   -0.1200
      5 C5         -2.0487    2.4013   49.3489 C.ar    1  ZINC000443394081   -0.1300
      6 C6         -2.3437    3.2641   50.5095 C.2     1  ZINC000443394081    0.5700
      7 O7         -1.5270    4.0852   50.8798 O.2     1  ZINC000443394081   -0.4900
      8 N8         -3.5182    3.1419   51.1589 N.am    1  ZINC000443394081   -0.6100
      9 C9         -3.9405    3.9354   52.3274 C.3     1  ZINC000443394081    0.0900
     10 C10        -5.4887    3.8861   52.3018 C.3     1  ZINC000443394081   -0.1300
     11 C11        -5.7461    2.4360   51.8139 C.3     1  ZINC000443394081   -0.1000
     12 H12        -5.6907    1.7336   52.6456 H       1  ZINC000443394081    0.0900
     13 C13        -7.1012    2.3338   51.1111 C.3     1  ZINC000443394081   -0.1500
     14 C14        -4.5934    2.1997   50.8155 C.3     1  ZINC000443394081    0.1400
     15 H15        -4.2268    1.1773   50.9077 H       1  ZINC000443394081    0.0800
     16 C16        -5.0822    2.4502   49.3876 C.3     1  ZINC000443394081    0.0600
     17 O17        -5.3075    3.8488   49.1997 O.3     1  ZINC000443394081   -0.5400
     18 C18        -2.1182    1.0120   49.4740 C.ar    1  ZINC000443394081   -0.1000
     19 C19        -1.8424    0.2075   48.3893 C.ar    1  ZINC000443394081   -0.1800
     20 C20        -1.5015    0.7749   47.1694 C.ar    1  ZINC000443394081    0.1300
     21 O21        -1.2307   -0.0218   46.1036 O.3     1  ZINC000443394081   -0.3000
     22 C22        -0.2499   -1.0441   46.2905 C.3     1  ZINC000443394081    0.1000
     23 C23         1.0853   -0.4112   46.5861 C.ar    1  ZINC000443394081   -0.0800
     24 C24         1.6270   -0.5006   47.8544 C.ar    1  ZINC000443394081   -0.0800
     25 C25         2.8520    0.0801   48.1258 C.ar    1  ZINC000443394081   -0.1100
     26 C26         3.5355    0.7508   47.1291 C.ar    1  ZINC000443394081   -0.1000
     27 C27         2.9947    0.8410   45.8601 C.ar    1  ZINC000443394081   -0.1100
     28 C28         1.7720    0.2549   45.5863 C.ar    1  ZINC000443394081   -0.0300
     29 Cl29        1.0923    0.3676   43.9930 Cl      1  ZINC000443394081   -0.0700
     30 H30         0.2465    3.9024   44.8038 H       1  ZINC000443394081    0.1000
     31 H31        -0.0280    4.3623   46.5013 H       1  ZINC000443394081    0.0600
     32 H32         0.9512    2.9268   46.1154 H       1  ZINC000443394081    0.0600
     33 H33        -1.6448    4.0466   48.0213 H       1  ZINC000443394081    0.1500
     34 H34        -3.5619    3.4882   53.2465 H       1  ZINC000443394081    0.0700
     35 H35        -3.5922    4.9639   52.2335 H       1  ZINC000443394081    0.0800
     36 H36        -5.9010    4.0419   53.2987 H       1  ZINC000443394081    0.0900
     37 H37        -5.8910    4.6129   51.5963 H       1  ZINC000443394081    0.0800
     38 H38        -7.1248    3.0215   50.2657 H       1  ZINC000443394081    0.0600
     39 H39        -7.2497    1.3145   50.7545 H       1  ZINC000443394081    0.0600
     40 H40        -7.8946    2.5926   51.8122 H       1  ZINC000443394081    0.0600
     41 H41        -4.3284    2.1054   48.6798 H       1  ZINC000443394081    0.0600
     42 H42        -6.0123    1.9068   49.2213 H       1  ZINC000443394081    0.0400
     43 H43        -5.6189    4.0816   48.3143 H       1  ZINC000443394081    0.3700
     44 H44        -2.3875    0.5679   50.4210 H       1  ZINC000443394081    0.1400
     45 H45        -1.8961   -0.8666   48.4876 H       1  ZINC000443394081    0.1400
     46 H46        -0.5431   -1.6806   47.1255 H       1  ZINC000443394081    0.0800
     47 H47        -0.1745   -1.6452   45.3844 H       1  ZINC000443394081    0.0800
     48 H48         1.0930   -1.0240   48.6338 H       1  ZINC000443394081    0.1400
     49 H49         3.2749    0.0099   49.1171 H       1  ZINC000443394081    0.1300
     50 H50         4.4920    1.2049   47.3419 H       1  ZINC000443394081    0.1300
     51 H51         3.5289    1.3651   45.0813 H       1  ZINC000443394081    0.1400
@<TRIPOS>BOND
     1     1     2    1
     2     1    30    1
     3     1    31    1
     4     1    32    1
     5     2     3    1
     6     3    20   ar
     7     3     4   ar
     8     4     5   ar
     9     4    33    1
    10     5     6    1
    11     5    18   ar
    12     6     7    2
    13     6     8   am
    14     8    14    1
    15     8     9    1
    16     9    10    1
    17     9    34    1
    18     9    35    1
    19    10    11    1
    20    10    36    1
    21    10    37    1
    22    11    12    1
    23    11    13    1
    24    11    14    1
    25    13    38    1
    26    13    39    1
    27    13    40    1
    28    14    15    1
    29    14    16    1
    30    16    17    1
    31    16    41    1
    32    16    42    1
    33    17    43    1
    34    18    19   ar
    35    18    44    1
    36    19    20   ar
    37    19    45    1
    38    20    21    1
    39    21    22    1
    40    22    23    1
    41    22    46    1
    42    22    47    1
    43    23    28   ar
    44    23    24   ar
    45    24    25   ar
    46    24    48    1
    47    25    26   ar
    48    25    49    1
    49    26    27   ar
    50    26    50    1
    51    27    28   ar
    52    27    51    1
    53    28    29    1
@<TRIPOS>SUBSTRUCTURE
     1 ZINC000443394081        1 TEMP              0 ****  ****    0 ROOT


##########                                Name:    ZINC001579482641
##########                DOCK_Rotatable_Bonds:                   5
##########                         Heavy_Atoms:                  26
##########                    Molecular_Weight:             355.359
##########                DOCK_Rotatable_Bonds:                   5
##########                       Formal_Charge:                0.05
##########                     HBond_Acceptors:                  11
##########                        HBond_Donors:                   1
##########                         Heavy_Atoms:                  26
##########                          Grid_Score:          -29.179882
##########                     Grid_vdw_energy:          -28.675806
##########                      Grid_es_energy:           -0.504075
##########           Internal_energy_repulsive:           17.289381

@<TRIPOS>MOLECULE
ZINC001579482641
 43 46 1 0 0
SMALL
USER_CHARGES


@<TRIPOS>ATOM
      1 C1         -2.5451    4.5427   56.9877 C.3     1  ZINC001579482641    0.0300
      2 O2         -2.5565    4.2423   55.5671 O.3     1  ZINC001579482641   -0.3300
      3 C3         -1.4229    4.4864   54.8812 C.2     1  ZINC001579482641    0.5300
      4 O4         -0.4818    5.0205   55.4336 O.2     1  ZINC001579482641   -0.4900
      5 C5         -1.3242    4.1047   53.4575 C.ar    1  ZINC001579482641    0.0900
      6 C6         -0.0688    4.0149   52.8537 C.ar    1  ZINC001579482641   -0.0800
      7 C7          0.0182    3.6571   51.5206 C.ar    1  ZINC001579482641   -0.1200
      8 C8         -1.1593    3.3973   50.8234 C.ar    1  ZINC001579482641    0.1100
      9 N9         -1.1183    3.0347   49.4840 N.3     1  ZINC001579482641   -0.4600
     10 C10        -0.3963    4.0526   48.6787 C.3     1  ZINC001579482641    0.0400
     11 C11         0.0062    3.2737   47.4012 C.3     1  ZINC001579482641   -0.1100
     12 C12         0.3592    1.8714   47.9481 C.3     1  ZINC001579482641   -0.0100
     13 H13         1.4358    1.7819   48.0930 H       1  ZINC001579482641    0.0900
     14 C14        -0.1315    0.8035   47.0049 C.2     1  ZINC001579482641    0.1800
     15 N15        -1.0604    0.9395   46.0982 N.2     1  ZINC001579482641   -0.2600
     16 N16        -1.2234   -0.1734   45.4750 N.2     1  ZINC001579482641   -0.2900
     17 C17        -0.4058   -1.0701   45.9558 C.2     1  ZINC001579482641    0.1500
     18 N18         0.3140   -0.4743   46.9370 N.pl3   1  ZINC001579482641   -0.4800
     19 C19         1.3562   -1.0892   47.7628 C.3     1  ZINC001579482641    0.0700
     20 C20        -0.3721    1.7711   49.2996 C.3     1  ZINC001579482641    0.0600
     21 C21        -2.3892    3.5068   51.4944 C.ar    1  ZINC001579482641    0.2300
     22 C22        -3.6518    3.2332   50.7650 C.2     1  ZINC001579482641    0.2100
     23 N23        -3.7726    2.6320   49.5978 N.2     1  ZINC001579482641   -0.2600
     24 N24        -5.0270    2.5864   49.3059 N.pl3   1  ZINC001579482641   -0.2300
     25 N25        -5.7047    3.1393   50.2504 N.2     1  ZINC001579482641   -0.0500
     26 N26        -4.8926    3.5440   51.1671 N.2     1  ZINC001579482641   -0.2000
     27 N27        -2.4305    3.8460   52.7701 N.ar    1  ZINC001579482641   -0.4000
     28 H28        -2.3372    5.6028   57.1333 H       1  ZINC001579482641    0.0700
     29 H29        -3.5169    4.3006   57.4181 H       1  ZINC001579482641    0.1100
     30 H30        -1.7727    3.9503   57.4782 H       1  ZINC001579482641    0.0700
     31 H31         0.8258    4.2232   53.4219 H       1  ZINC001579482641    0.1600
     32 H32         0.9778    3.5813   51.0308 H       1  ZINC001579482641    0.1600
     33 H33        -1.0551    4.8848   48.4304 H       1  ZINC001579482641    0.1000
     34 H34         0.4882    4.4058   49.2087 H       1  ZINC001579482641    0.0600
     35 H35        -0.8302    3.2168   46.7046 H       1  ZINC001579482641    0.1000
     36 H36         0.8739    3.7325   46.9272 H       1  ZINC001579482641    0.0800
     37 H37        -0.3168   -2.0957   45.6293 H       1  ZINC001579482641    0.2200
     38 H38         2.3245   -0.9645   47.2781 H       1  ZINC001579482641    0.0800
     39 H39         1.3752   -0.6091   48.7411 H       1  ZINC001579482641    0.0900
     40 H40         1.1445   -2.1517   47.8835 H       1  ZINC001579482641    0.0900
     41 H41         0.3516    1.6463   50.1050 H       1  ZINC001579482641    0.0600
     42 H42        -1.0647    0.9295   49.2855 H       1  ZINC001579482641    0.1000
     43 H43        -5.4018    2.1968   48.5004 H       1  ZINC001579482641    0.4800
@<TRIPOS>BOND
     1     1     2    1
     2     1    28    1
     3     1    29    1
     4     1    30    1
     5     2     3    1
     6     3     4    2
     7     3     5    1
     8     5    27   ar
     9     5     6   ar
    10     6     7   ar
    11     6    31    1
    12     7     8   ar
    13     7    32    1
    14     8     9    1
    15     8    21   ar
    16     9    20    1
    17     9    10    1
    18    10    11    1
    19    10    33    1
    20    10    34    1
    21    11    12    1
    22    11    35    1
    23    11    36    1
    24    12    13    1
    25    12    14    1
    26    12    20    1
    27    14    18    1
    28    14    15    2
    29    15    16    1
    30    16    17    2
    31    17    18    1
    32    17    37    1
    33    18    19    1
    34    19    38    1
    35    19    39    1
    36    19    40    1
    37    20    41    1
    38    20    42    1
    39    21    22    1
    40    21    27   ar
    41    22    26    1
    42    22    23    2
    43    23    24    1
    44    24    25    1
    45    24    43    1
    46    25    26    2
@<TRIPOS>SUBSTRUCTURE
     1 ZINC001579482641        1 TEMP              0 ****  ****    0 ROOT


##########                                Name:    ZINC000532153088
##########                DOCK_Rotatable_Bonds:                  11
##########                         Heavy_Atoms:                  29
##########                    Molecular_Weight:             402.484
##########                DOCK_Rotatable_Bonds:                  11
##########                       Formal_Charge:          -0.0200009
##########                     HBond_Acceptors:                   6
##########                        HBond_Donors:                   1
##########                         Heavy_Atoms:                  29
##########                          Grid_Score:          -29.175737
##########                     Grid_vdw_energy:          -29.324957
##########                      Grid_es_energy:            0.149220
##########           Internal_energy_repulsive:           15.607965

@<TRIPOS>MOLECULE
ZINC000532153088
 57 59 1 0 0
SMALL
USER_CHARGES


@<TRIPOS>ATOM
      1 C1         -6.8634    3.3573   55.4964 C.3     1  ZINC000532153088   -0.1800
      2 C2         -5.9016    4.3883   54.9024 C.3     1  ZINC000532153088    0.0800
      3 C3         -5.1599    5.1046   56.0327 C.3     1  ZINC000532153088   -0.1500
      4 O4         -4.9578    3.7277   54.0568 O.3     1  ZINC000532153088   -0.3800
      5 C5         -4.4486    4.5473   53.0027 C.3     1  ZINC000532153088    0.1000
      6 C6         -5.3297    4.4080   51.7880 C.ar    1  ZINC000532153088   -0.0700
      7 C7         -6.3880    5.2766   51.5986 C.ar    1  ZINC000532153088   -0.1000
      8 C8         -7.1962    5.1487   50.4842 C.ar    1  ZINC000532153088   -0.1100
      9 C9         -6.9457    4.1527   49.5593 C.ar    1  ZINC000532153088   -0.1200
     10 C10        -5.8864    3.2844   49.7482 C.ar    1  ZINC000532153088   -0.1000
     11 C11        -5.0759    3.4149   50.8601 C.ar    1  ZINC000532153088   -0.1100
     12 C12        -3.9213    2.4685   51.0662 C.3     1  ZINC000532153088    0.1600
     13 N13        -2.6679    3.1455   50.7240 N.am    1  ZINC000532153088   -0.7300
     14 C14        -1.9169    2.6957   49.6993 C.2     1  ZINC000532153088    0.5100
     15 O15        -2.2781    1.7296   49.0613 O.2     1  ZINC000532153088   -0.5000
     16 C16        -0.6286    3.3932   49.3463 C.3     1  ZINC000532153088    0.0300
     17 N17         0.5023    2.6549   49.9242 N.3     1  ZINC000532153088   -0.4800
     18 C18         1.4794    2.2934   48.8886 C.3     1  ZINC000532153088    0.1000
     19 C19         0.8579    1.3067   47.9341 C.ar    1  ZINC000532153088   -0.1300
     20 C20         0.6334    1.6658   46.6188 C.ar    1  ZINC000532153088   -0.0600
     21 C21         0.0639    0.7617   45.7419 C.ar    1  ZINC000532153088   -0.1700
     22 C22        -0.2823   -0.5050   46.1807 C.ar    1  ZINC000532153088    0.1300
     23 F23        -0.8385   -1.3887   45.3234 F       1  ZINC000532153088   -0.1300
     24 C24        -0.0579   -0.8659   47.4983 C.ar    1  ZINC000532153088   -0.2000
     25 C25         0.5173    0.0384   48.3740 C.ar    1  ZINC000532153088    0.1600
     26 F26         0.7369   -0.3124   49.6600 F       1  ZINC000532153088   -0.1100
     27 C27         1.1379    3.4246   51.0020 C.3     1  ZINC000532153088    0.0200
     28 C28         0.4986    3.3566   52.3904 C.3     1  ZINC000532153088   -0.2200
     29 C29         1.8228    2.6389   52.1220 C.3     1  ZINC000532153088   -0.1700
     30 H30        -7.5832    3.8612   56.1413 H       1  ZINC000532153088    0.0700
     31 H31        -7.3917    2.8471   54.6911 H       1  ZINC000532153088    0.0600
     32 H32        -6.3001    2.6291   56.0801 H       1  ZINC000532153088    0.0700
     33 H33        -6.4649    5.1166   54.3187 H       1  ZINC000532153088    0.0600
     34 H34        -4.5966    4.3764   56.6163 H       1  ZINC000532153088    0.0600
     35 H35        -4.4748    5.8392   55.6094 H       1  ZINC000532153088    0.0600
     36 H36        -5.8798    5.6085   56.6776 H       1  ZINC000532153088    0.0700
     37 H37        -4.4365    5.5883   53.3253 H       1  ZINC000532153088    0.0600
     38 H38        -3.4352    4.2319   52.7545 H       1  ZINC000532153088    0.0600
     39 H39        -6.5838    6.0548   52.3213 H       1  ZINC000532153088    0.1300
     40 H40        -8.0236    5.8270   50.3365 H       1  ZINC000532153088    0.1200
     41 H41        -7.5774    4.0524   48.6891 H       1  ZINC000532153088    0.1300
     42 H42        -5.6908    2.5059   49.0257 H       1  ZINC000532153088    0.1300
     43 H43        -3.8912    2.1538   52.1093 H       1  ZINC000532153088    0.0800
     44 H44        -4.0486    1.5951   50.4267 H       1  ZINC000532153088    0.0800
     45 H45        -2.3785    3.9175   51.2352 H       1  ZINC000532153088    0.4000
     46 H46        -0.5214    3.4317   48.2622 H       1  ZINC000532153088    0.0700
     47 H47        -0.6429    4.4071   49.7462 H       1  ZINC000532153088    0.1100
     48 H48         1.7781    3.1883   48.3427 H       1  ZINC000532153088    0.0900
     49 H49         2.3553    1.8439   49.3566 H       1  ZINC000532153088    0.0500
     50 H50         0.9028    2.6538   46.2756 H       1  ZINC000532153088    0.1400
     51 H51        -0.1115    1.0435   44.7142 H       1  ZINC000532153088    0.1400
     52 H52        -0.3276   -1.8538   47.8415 H       1  ZINC000532153088    0.1500
     53 H53         1.5897    4.3698   50.7013 H       1  ZINC000532153088    0.1200
     54 H54         0.5296    4.2575   53.0034 H       1  ZINC000532153088    0.1000
     55 H55        -0.3936    2.7408   52.5041 H       1  ZINC000532153088    0.1000
     56 H56         1.8018    1.5509   52.0592 H       1  ZINC000532153088    0.1000
     57 H57         2.7251    3.0675   52.5585 H       1  ZINC000532153088    0.1000
@<TRIPOS>BOND
     1     1     2    1
     2     1    30    1
     3     1    31    1
     4     1    32    1
     5     2     3    1
     6     2     4    1
     7     2    33    1
     8     3    34    1
     9     3    35    1
    10     3    36    1
    11     4     5    1
    12     5     6    1
    13     5    37    1
    14     5    38    1
    15     6    11   ar
    16     6     7   ar
    17     7     8   ar
    18     7    39    1
    19     8     9   ar
    20     8    40    1
    21     9    10   ar
    22     9    41    1
    23    10    11   ar
    24    10    42    1
    25    11    12    1
    26    12    13    1
    27    12    43    1
    28    12    44    1
    29    13    14   am
    30    13    45    1
    31    14    15    2
    32    14    16    1
    33    16    17    1
    34    16    46    1
    35    16    47    1
    36    17    18    1
    37    17    27    1
    38    18    19    1
    39    18    48    1
    40    18    49    1
    41    19    25   ar
    42    19    20   ar
    43    20    21   ar
    44    20    50    1
    45    21    22   ar
    46    21    51    1
    47    22    23    1
    48    22    24   ar
    49    24    25   ar
    50    24    52    1
    51    25    26    1
    52    27    29    1
    53    27    28    1
    54    27    53    1
    55    28    29    1
    56    28    54    1
    57    28    55    1
    58    29    56    1
    59    29    57    1
@<TRIPOS>SUBSTRUCTURE
     1 ZINC000532153088        1 TEMP              0 ****  ****    0 ROOT


##########                                Name:    ZINC000156038173
##########                DOCK_Rotatable_Bonds:                  10
##########                         Heavy_Atoms:                  27
##########                    Molecular_Weight:             396.357
##########                DOCK_Rotatable_Bonds:                  10
##########                       Formal_Charge:         -0.00999981
##########                     HBond_Acceptors:                  10
##########                        HBond_Donors:                   1
##########                         Heavy_Atoms:                  27
##########                          Grid_Score:          -29.173502
##########                     Grid_vdw_energy:          -28.191853
##########                      Grid_es_energy:           -0.981649
##########           Internal_energy_repulsive:           23.495485

@<TRIPOS>MOLECULE
ZINC000156038173
 48 48 1 0 0
SMALL
USER_CHARGES


@<TRIPOS>ATOM
      1 C1         -2.9850    3.6136   51.8081 C.3     1  ZINC000156038173    0.0700
      2 N2         -3.6086    3.0820   50.5939 N.am    1  ZINC000156038173   -0.6300
      3 C3         -5.0411    2.7749   50.5803 C.3     1  ZINC000156038173    0.1500
      4 C4         -5.3327    1.6578   51.5843 C.3     1  ZINC000156038173   -0.1400
      5 C5         -6.5804    1.9929   52.3603 C.2     1  ZINC000156038173    0.4700
      6 O6         -7.6340    2.1230   51.7833 O.2     1  ZINC000156038173   -0.5000
      7 O7         -6.5212    2.1470   53.6924 O.3     1  ZINC000156038173   -0.3500
      8 C8         -7.0806    3.3699   54.2401 C.3     1  ZINC000156038173    0.1200
      9 C9         -8.5889    3.1995   54.4319 C.3     1  ZINC000156038173   -0.1800
     10 C10        -6.4256    3.6706   55.5897 C.3     1  ZINC000156038173   -0.1400
     11 C11        -6.8167    4.5280   53.2758 C.3     1  ZINC000156038173   -0.1800
     12 C12        -2.8647    2.8753   49.4892 C.2     1  ZINC000156038173    0.7100
     13 O13        -3.3826    2.4355   48.4809 O.2     1  ZINC000156038173   -0.5700
     14 N14        -1.5467    3.1563   49.5021 N.am    1  ZINC000156038173   -0.7400
     15 C15        -0.7383    2.9333   48.3009 C.3     1  ZINC000156038173    0.1700
     16 H16        -1.2764    3.3015   47.4273 H       1  ZINC000156038173    0.1500
     17 C17        -0.4712    1.4588   48.1416 C.ar    1  ZINC000156038173   -0.1300
     18 C18         0.0580    0.7348   49.1934 C.ar    1  ZINC000156038173   -0.0700
     19 C19         0.3037   -0.6181   49.0489 C.ar    1  ZINC000156038173   -0.1000
     20 C20         0.0207   -1.2494   47.8524 C.ar    1  ZINC000156038173   -0.1100
     21 C21        -0.5092   -0.5272   46.7972 C.ar    1  ZINC000156038173    0.0700
     22 F22        -0.7861   -1.1436   45.6273 F       1  ZINC000156038173   -0.1200
     23 C23        -0.7610    0.8283   46.9440 C.ar    1  ZINC000156038173    0.1000
     24 F24        -1.2781    1.5353   45.9155 F       1  ZINC000156038173   -0.1200
     25 C25         0.5900    3.6808   48.4340 C.3     1  ZINC000156038173    0.4500
     26 F26         1.4863    3.2148   47.4661 F       1  ZINC000156038173   -0.1700
     27 F27         0.3748    5.0508   48.2492 F       1  ZINC000156038173   -0.1600
     28 F28         1.1236    3.4603   49.7083 F       1  ZINC000156038173   -0.1700
     29 H29        -2.6281    2.7886   52.4245 H       1  ZINC000156038173    0.0600
     30 H30        -2.1454    4.2530   51.5353 H       1  ZINC000156038173    0.0700
     31 H31        -3.7174    4.1951   52.3681 H       1  ZINC000156038173    0.0800
     32 H32        -5.6063    3.6659   50.8539 H       1  ZINC000156038173    0.1000
     33 H33        -5.3339    2.4514   49.5815 H       1  ZINC000156038173    0.0900
     34 H34        -5.4780    0.7185   51.0507 H       1  ZINC000156038173    0.1100
     35 H35        -4.4927    1.5589   52.2719 H       1  ZINC000156038173    0.1100
     36 H36        -8.7770    2.3744   55.1188 H       1  ZINC000156038173    0.0600
     37 H37        -9.0088    4.1175   54.8430 H       1  ZINC000156038173    0.0700
     38 H38        -9.0555    2.9853   53.4704 H       1  ZINC000156038173    0.0800
     39 H39        -5.3510    3.7919   55.4531 H       1  ZINC000156038173    0.0700
     40 H40        -6.8455    4.5885   56.0009 H       1  ZINC000156038173    0.0800
     41 H41        -6.6136    2.8454   56.2767 H       1  ZINC000156038173    0.0700
     42 H42        -7.2832    4.3138   52.3143 H       1  ZINC000156038173    0.0800
     43 H43        -7.2366    5.4461   53.6869 H       1  ZINC000156038173    0.0700
     44 H44        -5.7420    4.6494   53.1392 H       1  ZINC000156038173    0.0600
     45 H45        -1.1332    3.5061   50.3069 H       1  ZINC000156038173    0.4100
     46 H46         0.2800    1.2265   50.1289 H       1  ZINC000156038173    0.1400
     47 H47         0.7174   -1.1820   49.8717 H       1  ZINC000156038173    0.1500
     48 H48         0.2135   -2.3062   47.7406 H       1  ZINC000156038173    0.1500
@<TRIPOS>BOND
     1     1     2    1
     2     1    29    1
     3     1    30    1
     4     1    31    1
     5     2     3    1
     6     2    12   am
     7     3     4    1
     8     3    32    1
     9     3    33    1
    10     4     5    1
    11     4    34    1
    12     4    35    1
    13     5     6    2
    14     5     7    1
    15     7     8    1
    16     8     9    1
    17     8    10    1
    18     8    11    1
    19     9    36    1
    20     9    37    1
    21     9    38    1
    22    10    39    1
    23    10    40    1
    24    10    41    1
    25    11    42    1
    26    11    43    1
    27    11    44    1
    28    12    13    2
    29    12    14   am
    30    14    15    1
    31    14    45    1
    32    15    16    1
    33    15    17    1
    34    15    25    1
    35    17    23   ar
    36    17    18   ar
    37    18    19   ar
    38    18    46    1
    39    19    20   ar
    40    19    47    1
    41    20    21   ar
    42    20    48    1
    43    21    22    1
    44    21    23   ar
    45    23    24    1
    46    25    26    1
    47    25    27    1
    48    25    28    1
@<TRIPOS>SUBSTRUCTURE
     1 ZINC000156038173        1 TEMP              0 ****  ****    0 ROOT


##########                                Name:    ZINC000885154703
##########                DOCK_Rotatable_Bonds:                   5
##########                         Heavy_Atoms:                  24
##########                    Molecular_Weight:             396.259
##########                DOCK_Rotatable_Bonds:                   5
##########                       Formal_Charge:          -0.0099998
##########                     HBond_Acceptors:                   6
##########                        HBond_Donors:                   1
##########                         Heavy_Atoms:                  24
##########                          Grid_Score:          -29.169546
##########                     Grid_vdw_energy:          -28.361231
##########                      Grid_es_energy:           -0.808315
##########           Internal_energy_repulsive:            9.291304

@<TRIPOS>MOLECULE
ZINC000885154703
 43 45 1 0 0
SMALL
USER_CHARGES


@<TRIPOS>ATOM
      1 C1          3.8255    0.8179   43.8557 C.3     1  ZINC000885154703   -0.1500
      2 C2          4.7170    0.5268   45.0647 C.3     1  ZINC000885154703   -0.0300
      3 C3          3.8876   -0.0833   46.1651 C.2     1  ZINC000885154703    0.1700
      4 N4          4.3018   -0.9257   47.0635 N.2     1  ZINC000885154703   -0.3800
      5 O5          3.3923   -1.2272   47.8075 O.3     1  ZINC000885154703    0.0800
      6 C6          2.2777   -0.5863   47.4431 C.2     1  ZINC000885154703    0.1800
      7 C7          0.9282   -0.6848   48.1065 C.3     1  ZINC000885154703    0.0000
      8 H8          0.8206   -1.6554   48.5909 H       1  ZINC000885154703    0.1300
      9 C9         -0.1897   -0.4888   47.0618 C.3     1  ZINC000885154703   -0.1200
     10 C10        -1.2789    0.3130   47.8168 C.3     1  ZINC000885154703   -0.1300
     11 C11        -0.4453    1.2844   48.6888 C.3     1  ZINC000885154703    0.1400
     12 H12        -0.1163    2.1399   48.0988 H       1  ZINC000885154703    0.1000
     13 N13        -1.2240    1.7307   49.8466 N.am    1  ZINC000885154703   -0.7100
     14 C14        -2.2516    2.5863   49.6783 C.2     1  ZINC000885154703    0.5700
     15 O15        -2.5315    2.9888   48.5659 O.2     1  ZINC000885154703   -0.5100
     16 C16        -3.0378    3.0349   50.8454 C.ar    1  ZINC000885154703   -0.1600
     17 C17        -2.4579    3.8724   51.8032 C.ar    1  ZINC000885154703    0.1500
     18 F18        -1.1756    4.2745   51.6644 F       1  ZINC000885154703   -0.1200
     19 C19        -3.2012    4.2884   52.8930 C.ar    1  ZINC000885154703   -0.1500
     20 C20        -4.5129    3.8774   53.0357 C.ar    1  ZINC000885154703   -0.0400
     21 C21        -5.0928    3.0477   52.0899 C.ar    1  ZINC000885154703   -0.1100
     22 Br22       -6.8886    2.4927   52.2972 Br      1  ZINC000885154703   -0.0300
     23 C23        -4.3658    2.6293   50.9949 C.ar    1  ZINC000885154703    0.0100
     24 C24        -4.9997    1.7272   49.9676 C.3     1  ZINC000885154703   -0.1300
     25 C25         0.7663    0.4419   49.1419 C.3     1  ZINC000885154703   -0.1300
     26 N26         2.5840    0.1487   46.4012 N.2     1  ZINC000885154703   -0.4800
     27 H27         3.3790   -0.1112   43.5015 H       1  ZINC000885154703    0.0600
     28 H28         3.0372    1.5130   44.1446 H       1  ZINC000885154703    0.0600
     29 H29         4.4254    1.2593   43.0598 H       1  ZINC000885154703    0.0700
     30 H30         5.5053   -0.1683   44.7758 H       1  ZINC000885154703    0.1000
     31 H31         5.1636    1.4559   45.4189 H       1  ZINC000885154703    0.0900
     32 H32         0.1805    0.0803   46.2090 H       1  ZINC000885154703    0.0800
     33 H33        -0.5818   -1.4526   46.7371 H       1  ZINC000885154703    0.0900
     34 H34        -1.9074    0.8641   47.1174 H       1  ZINC000885154703    0.0800
     35 H35        -1.8810   -0.3469   48.4414 H       1  ZINC000885154703    0.0800
     36 H36        -0.9999    1.4105   50.7344 H       1  ZINC000885154703    0.4000
     37 H37        -2.7555    4.9353   53.6342 H       1  ZINC000885154703    0.1500
     38 H38        -5.0886    4.2046   53.8888 H       1  ZINC000885154703    0.1500
     39 H39        -5.4715    2.3328   49.1938 H       1  ZINC000885154703    0.0900
     40 H40        -4.2344    1.0947   49.5178 H       1  ZINC000885154703    0.0800
     41 H41        -5.7518    1.1015   50.4482 H       1  ZINC000885154703    0.0900
     42 H42         0.5788    0.0192   50.1289 H       1  ZINC000885154703    0.0900
     43 H43         1.6636    1.0601   49.1642 H       1  ZINC000885154703    0.0800
@<TRIPOS>BOND
     1     1     2    1
     2     1    27    1
     3     1    28    1
     4     1    29    1
     5     2     3    1
     6     2    30    1
     7     2    31    1
     8     3    26    1
     9     3     4    2
    10     4     5    1
    11     5     6    1
    12     6     7    1
    13     6    26    2
    14     7     8    1
    15     7    25    1
    16     7     9    1
    17     9    10    1
    18     9    32    1
    19     9    33    1
    20    10    11    1
    21    10    34    1
    22    10    35    1
    23    11    12    1
    24    11    13    1
    25    11    25    1
    26    13    14   am
    27    13    36    1
    28    14    15    2
    29    14    16    1
    30    16    23   ar
    31    16    17   ar
    32    17    18    1
    33    17    19   ar
    34    19    20   ar
    35    19    37    1
    36    20    21   ar
    37    20    38    1
    38    21    22    1
    39    21    23   ar
    40    23    24    1
    41    24    39    1
    42    24    40    1
    43    24    41    1
    44    25    42    1
    45    25    43    1
@<TRIPOS>SUBSTRUCTURE
     1 ZINC000885154703        1 TEMP              0 ****  ****    0 ROOT


##########                                Name:    ZINC000745364361
##########                DOCK_Rotatable_Bonds:                   8
##########                         Heavy_Atoms:                  29
##########                    Molecular_Weight:             398.434
##########                DOCK_Rotatable_Bonds:                   8
##########                       Formal_Charge:          0.00999923
##########                     HBond_Acceptors:                   7
##########                        HBond_Donors:                   1
##########                         Heavy_Atoms:                  29
##########                          Grid_Score:          -29.151455
##########                     Grid_vdw_energy:          -28.712025
##########                      Grid_es_energy:           -0.439430
##########           Internal_energy_repulsive:           17.440226

@<TRIPOS>MOLECULE
ZINC000745364361
 52 54 1 0 0
SMALL
USER_CHARGES


@<TRIPOS>ATOM
      1 C1         -6.3597    1.0820   50.8085 C.3     1  ZINC000745364361   -0.1700
      2 C2         -5.0828    1.8176   51.2201 C.3     1  ZINC000745364361    0.0700
      3 H3         -4.6435    1.3253   52.0876 H       1  ZINC000745364361    0.1100
      4 O4         -5.4034    3.1935   51.5552 O.3     1  ZINC000745364361   -0.3200
      5 C5         -5.9930    3.4102   52.7415 C.2     1  ZINC000745364361    0.4700
      6 O6         -5.7763    2.6665   53.6686 O.2     1  ZINC000745364361   -0.4900
      7 C7         -6.9251    4.5814   52.9168 C.3     1  ZINC000745364361   -0.0400
      8 H8         -6.8871    4.9245   53.9506 H       1  ZINC000745364361    0.1200
      9 C9         -6.4967    5.7179   51.9862 C.3     1  ZINC000745364361   -0.1400
     10 C10        -8.3317    4.1588   52.5790 C.ar    1  ZINC000745364361   -0.0500
     11 C11        -8.7949    4.2736   51.2819 C.ar    1  ZINC000745364361   -0.1000
     12 C12       -10.0852    3.8863   50.9706 C.ar    1  ZINC000745364361   -0.0900
     13 C13       -10.9131    3.3838   51.9561 C.ar    1  ZINC000745364361   -0.1500
     14 C14       -10.4499    3.2679   53.2561 C.ar    1  ZINC000745364361    0.1000
     15 F15       -11.2585    2.7768   54.2205 F       1  ZINC000745364361   -0.1400
     16 C16        -9.1562    3.6512   53.5655 C.ar    1  ZINC000745364361   -0.1400
     17 C17        -4.0998    1.7947   50.0781 C.2     1  ZINC000745364361    0.5200
     18 O18        -4.3714    2.3471   49.0329 O.2     1  ZINC000745364361   -0.5000
     19 N19        -2.9188    1.1606   50.2180 N.am    1  ZINC000745364361   -0.6700
     20 C20        -2.0051    1.1394   49.1565 C.ar    1  ZINC000745364361    0.1200
     21 C21        -1.5863    2.3298   48.5770 C.ar    1  ZINC000745364361   -0.1100
     22 C22        -0.6859    2.3090   47.5308 C.ar    1  ZINC000745364361   -0.1400
     23 C23        -0.1986    1.0975   47.0582 C.ar    1  ZINC000745364361    0.1500
     24 N24         0.7148    1.0763   45.9964 N.am    1  ZINC000745364361   -0.5600
     25 C25         2.0337    1.7193   46.0257 C.3     1  ZINC000745364361    0.0900
     26 C26         2.8292    1.0812   44.8655 C.3     1  ZINC000745364361   -0.1300
     27 C27         1.6953    0.6350   43.9136 C.3     1  ZINC000745364361   -0.1500
     28 C28         0.4982    0.4595   44.8219 C.2     1  ZINC000745364361    0.5200
     29 O29        -0.5128   -0.1437   44.5300 O.2     1  ZINC000745364361   -0.5100
     30 C30        -0.6163   -0.0929   47.6387 C.ar    1  ZINC000745364361   -0.1400
     31 C31        -1.5138   -0.0718   48.6874 C.ar    1  ZINC000745364361   -0.0900
     32 H32        -7.0708    1.0985   51.6345 H       1  ZINC000745364361    0.0800
     33 H33        -6.7991    1.5744   49.9410 H       1  ZINC000745364361    0.0800
     34 H34        -6.1190    0.0492   50.5570 H       1  ZINC000745364361    0.0800
     35 H35        -6.5348    5.3747   50.9524 H       1  ZINC000745364361    0.0700
     36 H36        -7.1709    6.5649   52.1130 H       1  ZINC000745364361    0.0800
     37 H37        -5.4794    6.0235   52.2305 H       1  ZINC000745364361    0.0800
     38 H38        -8.1487    4.6666   50.5110 H       1  ZINC000745364361    0.1300
     39 H39       -10.4462    3.9768   49.9567 H       1  ZINC000745364361    0.1400
     40 H40       -11.9211    3.0820   51.7129 H       1  ZINC000745364361    0.1400
     41 H41        -8.7937    3.5608   54.5788 H       1  ZINC000745364361    0.1400
     42 H42        -2.7016    0.7188   51.0538 H       1  ZINC000745364361    0.4100
     43 H43        -1.9653    3.2721   48.9445 H       1  ZINC000745364361    0.1300
     44 H44        -0.3607    3.2348   47.0797 H       1  ZINC000745364361    0.1600
     45 H45         1.9334    2.7933   45.8684 H       1  ZINC000745364361    0.0800
     46 H46         2.5289    1.5212   46.9763 H       1  ZINC000745364361    0.0900
     47 H47         3.4753    1.8159   44.3850 H       1  ZINC000745364361    0.1000
     48 H48         3.4065    0.2244   45.2131 H       1  ZINC000745364361    0.0900
     49 H49         1.5015    1.4029   43.1647 H       1  ZINC000745364361    0.1100
     50 H50         1.9491   -0.3107   43.4348 H       1  ZINC000745364361    0.1100
     51 H51        -0.2371   -1.0350   47.2714 H       1  ZINC000745364361    0.1300
     52 H52        -1.8387   -0.9976   49.1387 H       1  ZINC000745364361    0.1400
@<TRIPOS>BOND
     1     1     2    1
     2     1    32    1
     3     1    33    1
     4     1    34    1
     5     2     3    1
     6     2     4    1
     7     2    17    1
     8     4     5    1
     9     5     6    2
    10     5     7    1
    11     7     8    1
    12     7     9    1
    13     7    10    1
    14     9    35    1
    15     9    36    1
    16     9    37    1
    17    10    16   ar
    18    10    11   ar
    19    11    12   ar
    20    11    38    1
    21    12    13   ar
    22    12    39    1
    23    13    14   ar
    24    13    40    1
    25    14    15    1
    26    14    16   ar
    27    16    41    1
    28    17    18    2
    29    17    19   am
    30    19    20    1
    31    19    42    1
    32    20    31   ar
    33    20    21   ar
    34    21    22   ar
    35    21    43    1
    36    22    23   ar
    37    22    44    1
    38    23    24    1
    39    23    30   ar
    40    24    28   am
    41    24    25    1
    42    25    26    1
    43    25    45    1
    44    25    46    1
    45    26    27    1
    46    26    47    1
    47    26    48    1
    48    27    28    1
    49    27    49    1
    50    27    50    1
    51    28    29    2
    52    30    31   ar
    53    30    51    1
    54    31    52    1
@<TRIPOS>SUBSTRUCTURE
     1 ZINC000745364361        1 TEMP              0 ****  ****    0 ROOT


##########                                Name:    ZINC000851838607
##########                DOCK_Rotatable_Bonds:                  12
##########                         Heavy_Atoms:                  23
##########                    Molecular_Weight:             352.495
##########                DOCK_Rotatable_Bonds:                  12
##########                       Formal_Charge:          0.00999896
##########                     HBond_Acceptors:                   8
##########                        HBond_Donors:                   2
##########                         Heavy_Atoms:                  23
##########                          Grid_Score:          -29.145546
##########                     Grid_vdw_energy:          -28.807869
##########                      Grid_es_energy:           -0.337676
##########           Internal_energy_repulsive:           21.161860

@<TRIPOS>MOLECULE
ZINC000851838607
 55 54 1 0 0
SMALL
USER_CHARGES


@<TRIPOS>ATOM
      1 C1         -7.7367    2.5790   52.9289 C.3     1  ZINC000851838607    0.0300
      2 O2         -8.7760    1.7997   53.5243 O.3     1  ZINC000851838607   -0.3800
      3 C3         -9.9873    1.7704   52.7668 C.3     1  ZINC000851838607    0.0800
      4 C4        -11.0035    0.8642   53.4648 C.3     1  ZINC000851838607   -0.6000
      5 H5        -10.9185    0.9870   54.5445 H       1  ZINC000851838607    0.1400
      6 C6        -12.4168    1.2439   53.0181 C.3     1  ZINC000851838607   -0.1400
      7 S7        -10.6743   -0.8646   53.0250 S.o2    1  ZINC000851838607    2.6200
      8 O8        -11.7389   -1.3923   52.2457 O.2     1  ZINC000851838607   -0.9400
      9 O9         -9.3212   -1.0278   52.6230 O.2     1  ZINC000851838607   -0.9500
     10 N10       -10.7751   -1.6827   54.4614 N.am    1  ZINC000851838607   -1.1200
     11 C11       -12.0223   -1.6628   55.2297 C.3     1  ZINC000851838607    0.1100
     12 C12       -11.7830   -0.9698   56.5726 C.3     1  ZINC000851838607   -0.1400
     13 C13       -12.3288   -1.8450   57.7026 C.3     1  ZINC000851838607    0.1700
     14 H14       -12.0340   -2.8808   57.5347 H       1  ZINC000851838607    0.1000
     15 N15       -11.7858   -1.3841   58.9829 N.am    1  ZINC000851838607   -0.7100
     16 C16       -10.6538   -1.9296   59.4703 C.2     1  ZINC000851838607    0.6500
     17 O17       -10.0845   -2.8049   58.8485 O.2     1  ZINC000851838607   -0.5600
     18 O18       -10.1539   -1.5050   60.6460 O.3     1  ZINC000851838607   -0.3700
     19 C19        -9.3551   -0.2927   60.6234 C.3     1  ZINC000851838607    0.1400
     20 C20        -8.3460   -0.3252   61.7730 C.3     1  ZINC000851838607   -0.1800
     21 C21        -8.6079   -0.1991   59.2915 C.3     1  ZINC000851838607   -0.1400
     22 C22       -10.2695    0.9237   60.7817 C.3     1  ZINC000851838607   -0.1800
     23 C23       -13.8554   -1.7474   57.7314 C.3     1  ZINC000851838607   -0.1100
     24 C24       -14.4600   -3.1141   57.4035 C.3     1  ZINC000851838607   -0.1500
     25 C25       -14.3122   -1.3086   59.1242 C.3     1  ZINC000851838607   -0.1400
     26 H26        -7.4929    2.1707   51.9480 H       1  ZINC000851838607    0.0400
     27 H27        -8.0728    3.6101   52.8197 H       1  ZINC000851838607    0.0500
     28 H28        -6.8516    2.5507   53.5644 H       1  ZINC000851838607    0.0900
     29 H29       -10.3925    2.7794   52.6904 H       1  ZINC000851838607    0.0700
     30 H30        -9.7821    1.3846   51.7682 H       1  ZINC000851838607    0.0600
     31 H31       -13.1333    0.5414   53.4437 H       1  ZINC000851838607    0.0700
     32 H32       -12.6480    2.2519   53.3620 H       1  ZINC000851838607    0.0900
     33 H33       -12.4757    1.2086   51.9302 H       1  ZINC000851838607    0.0700
     34 H34       -10.0084   -2.1751   54.7940 H       1  ZINC000851838607    0.4200
     35 H35       -12.7845   -1.1195   54.6712 H       1  ZINC000851838607    0.0700
     36 H36       -12.3585   -2.6850   55.4032 H       1  ZINC000851838607    0.0800
     37 H37       -10.7136   -0.8156   56.7164 H       1  ZINC000851838607    0.0800
     38 H38       -12.2932   -0.0065   56.5804 H       1  ZINC000851838607    0.1000
     39 H39       -12.2408   -0.6864   59.4797 H       1  ZINC000851838607    0.4100
     40 H40        -7.6945   -1.1918   61.6603 H       1  ZINC000851838607    0.0600
     41 H41        -7.7464    0.5849   61.7560 H       1  ZINC000851838607    0.0700
     42 H42        -8.8783   -0.3919   62.7218 H       1  ZINC000851838607    0.0900
     43 H43        -9.3268   -0.1759   58.4724 H       1  ZINC000851838607    0.0700
     44 H44        -8.0082    0.7110   59.2744 H       1  ZINC000851838607    0.0800
     45 H45        -7.9564   -1.0656   59.1787 H       1  ZINC000851838607    0.0700
     46 H46       -10.8019    0.8571   61.7305 H       1  ZINC000851838607    0.0900
     47 H47        -9.6699    1.8338   60.7646 H       1  ZINC000851838607    0.0700
     48 H48       -10.9885    0.9469   59.9626 H       1  ZINC000851838607    0.0600
     49 H49       -14.1868   -1.0170   56.9935 H       1  ZINC000851838607    0.0700
     50 H50       -14.1286   -3.8446   58.1414 H       1  ZINC000851838607    0.0600
     51 H51       -15.5476   -3.0446   57.4241 H       1  ZINC000851838607    0.0600
     52 H52       -14.1346   -3.4267   56.4113 H       1  ZINC000851838607    0.0600
     53 H53       -13.8814   -0.3351   59.3579 H       1  ZINC000851838607    0.0500
     54 H54       -15.3997   -1.2392   59.1448 H       1  ZINC000851838607    0.0500
     55 H55       -13.9808   -2.0392   59.8622 H       1  ZINC000851838607    0.0700
@<TRIPOS>BOND
     1     1     2    1
     2     1    26    1
     3     1    27    1
     4     1    28    1
     5     2     3    1
     6     3     4    1
     7     3    29    1
     8     3    30    1
     9     4     5    1
    10     4     6    1
    11     4     7    1
    12     6    31    1
    13     6    32    1
    14     6    33    1
    15     7     8    2
    16     7     9    2
    17     7    10   am
    18    10    11    1
    19    10    34    1
    20    11    12    1
    21    11    35    1
    22    11    36    1
    23    12    13    1
    24    12    37    1
    25    12    38    1
    26    13    14    1
    27    13    15    1
    28    13    23    1
    29    15    16   am
    30    15    39    1
    31    16    17    2
    32    16    18    1
    33    18    19    1
    34    19    20    1
    35    19    21    1
    36    19    22    1
    37    20    40    1
    38    20    41    1
    39    20    42    1
    40    21    43    1
    41    21    44    1
    42    21    45    1
    43    22    46    1
    44    22    47    1
    45    22    48    1
    46    23    24    1
    47    23    25    1
    48    23    49    1
    49    24    50    1
    50    24    51    1
    51    24    52    1
    52    25    53    1
    53    25    54    1
    54    25    55    1
@<TRIPOS>SUBSTRUCTURE
     1 ZINC000851838607        1 TEMP              0 ****  ****    0 ROOT


##########                                Name:    ZINC000350493047
##########                DOCK_Rotatable_Bonds:                   7
##########                         Heavy_Atoms:                  24
##########                    Molecular_Weight:             330.387
##########                DOCK_Rotatable_Bonds:                   7
##########                       Formal_Charge:          -0.0300002
##########                     HBond_Acceptors:                   7
##########                        HBond_Donors:                   3
##########                         Heavy_Atoms:                  24
##########                          Grid_Score:          -29.143635
##########                     Grid_vdw_energy:          -28.666559
##########                      Grid_es_energy:           -0.477076
##########           Internal_energy_repulsive:            6.868678

@<TRIPOS>MOLECULE
ZINC000350493047
 46 48 1 0 0
SMALL
USER_CHARGES


@<TRIPOS>ATOM
      1 C1          0.6553   -0.6122   48.9739 C.3     1  <0>        -0.1600
      2 C2         -0.3977   -0.3231   47.9022 C.3     1  <0>         0.2600
      3 H3         -1.0343   -1.1985   47.7730 H       1  <0>         0.1200
      4 N4          0.2680   -0.0122   46.6348 N.am    1  <0>        -0.7400
      5 C5         -0.2791   -0.4128   45.4701 C.2     1  <0>         0.7100
      6 N6          0.3325   -0.1253   44.3040 N.am    1  <0>        -0.8600
      7 O7         -1.3245   -1.0338   45.4713 O.2     1  <0>        -0.5900
      8 C8         -1.2395    0.8517   48.3289 C.2     1  <0>         0.1700
      9 N9         -1.1129    2.0777   47.9144 N.2     1  <0>        -0.3800
     10 O10        -1.9392    2.7919   48.4419 O.3     1  <0>         0.0900
     11 C11        -2.7005    2.0645   49.2743 C.2     1  <0>         0.2400
     12 C12        -3.8173    2.5567   50.1055 C.ar    1  <0>        -0.0800
     13 C13        -5.0732    2.7735   49.5337 C.ar    1  <0>        -0.0200
     14 C14        -6.1126    3.2328   50.3126 C.ar    1  <0>        -0.2200
     15 C15        -5.9127    3.4808   51.6651 C.ar    1  <0>         0.1700
     16 O16        -6.9395    3.9339   52.4292 O.3     1  <0>        -0.3000
     17 C17        -8.1926    3.2596   52.2979 C.3     1  <0>         0.0800
     18 C18        -8.0271    1.7928   52.7001 C.3     1  <0>        -0.1500
     19 C19        -9.3687    1.0709   52.5595 C.3     1  <0>        -0.1200
     20 C20       -10.4034    1.7357   53.4697 C.3     1  <0>        -0.1300
     21 C21       -10.5689    3.2026   53.0675 C.3     1  <0>        -0.1200
     22 C22        -9.2273    3.9245   53.2081 C.3     1  <0>        -0.1200
     23 C23        -4.6651    3.2661   52.2376 C.ar    1  <0>        -0.1600
     24 C24        -3.6221    2.8013   51.4669 C.ar    1  <0>        -0.0300
     25 N25        -2.2590    0.8205   49.2011 N.2     1  <0>        -0.4700
     26 H26         1.2919    0.2632   49.1030 H       1  <0>         0.0600
     27 H27         0.1601   -0.8435   49.9168 H       1  <0>         0.0700
     28 H28         1.2642   -1.4618   48.6651 H       1  <0>         0.0800
     29 H29         1.1025    0.4822   46.6338 H       1  <0>         0.4000
     30 H30        -0.0620   -0.4128   43.4657 H       1  <0>         0.4000
     31 H31         1.1670    0.3690   44.3029 H       1  <0>         0.4200
     32 H32        -5.2291    2.5816   48.4824 H       1  <0>         0.1400
     33 H33        -7.0839    3.4007   49.8713 H       1  <0>         0.1400
     34 H34        -8.5292    3.3168   51.2627 H       1  <0>         0.0800
     35 H35        -7.2900    1.3192   52.0516 H       1  <0>         0.0700
     36 H36        -7.6905    1.7357   53.7353 H       1  <0>         0.0800
     37 H37        -9.7053    1.1281   51.5243 H       1  <0>         0.0600
     38 H38        -9.2508    0.0259   52.8460 H       1  <0>         0.0700
     39 H39       -11.3592    1.2214   53.3696 H       1  <0>         0.0700
     40 H40       -10.0668    1.6785   54.5048 H       1  <0>         0.0700
     41 H41       -10.9055    3.2597   52.0323 H       1  <0>         0.0700
     42 H42       -11.3060    3.6761   53.7160 H       1  <0>         0.0700
     43 H43        -8.8907    3.8673   54.2432 H       1  <0>         0.0800
     44 H44        -9.3452    4.9695   52.9215 H       1  <0>         0.0700
     45 H45        -4.5139    3.4597   53.2894 H       1  <0>         0.1400
     46 H46        -2.6527    2.6343   51.9128 H       1  <0>         0.1400
@<TRIPOS>BOND
     1     1     2    1
     2     1    26    1
     3     1    27    1
     4     1    28    1
     5     2     3    1
     6     2     4    1
     7     2     8    1
     8     4     5   am
     9     4    29    1
    10     5     6   am
    11     5     7    2
    12     6    30    1
    13     6    31    1
    14     8    25    1
    15     8     9    2
    16     9    10    1
    17    10    11    1
    18    11    12    1
    19    11    25    2
    20    12    24   ar
    21    12    13   ar
    22    13    14   ar
    23    13    32    1
    24    14    15   ar
    25    14    33    1
    26    15    16    1
    27    15    23   ar
    28    16    17    1
    29    17    22    1
    30    17    18    1
    31    17    34    1
    32    18    19    1
    33    18    35    1
    34    18    36    1
    35    19    20    1
    36    19    37    1
    37    19    38    1
    38    20    21    1
    39    20    39    1
    40    20    40    1
    41    21    22    1
    42    21    41    1
    43    21    42    1
    44    22    43    1
    45    22    44    1
    46    23    24   ar
    47    23    45    1
    48    24    46    1
@<TRIPOS>SUBSTRUCTURE
     1 <0>         1 TEMP              0 ****  ****    0 ROOT


##########                                Name:    ZINC001011267435
##########                DOCK_Rotatable_Bonds:                   7
##########                         Heavy_Atoms:                  24
##########                    Molecular_Weight:             331.458
##########                DOCK_Rotatable_Bonds:                   7
##########                       Formal_Charge:        -4.47035e-08
##########                     HBond_Acceptors:                   5
##########                        HBond_Donors:                   0
##########                         Heavy_Atoms:                  24
##########                          Grid_Score:          -29.110336
##########                     Grid_vdw_energy:          -28.321419
##########                      Grid_es_energy:           -0.788917
##########           Internal_energy_repulsive:           40.527771

@<TRIPOS>MOLECULE
ZINC001011267435
 53 54 1 0 0
SMALL
USER_CHARGES


@<TRIPOS>ATOM
      1 C1         -8.1283    2.9560   54.9225 C.3     1  ZINC001011267435   -0.1500
      2 C2         -9.0910    2.2514   53.9647 C.3     1  ZINC001011267435   -0.1200
      3 C3         -8.3111    1.7079   52.7659 C.3     1  ZINC001011267435   -0.0700
      4 C4         -7.5833    2.8387   52.0857 C.ar    1  ZINC001011267435    0.1300
      5 C5         -6.2355    3.0229   52.3251 C.ar    1  ZINC001011267435   -0.1200
      6 C6         -5.5714    4.0758   51.6879 C.ar    1  ZINC001011267435   -0.0800
      7 C7         -4.1264    4.3121   51.9135 C.2     1  ZINC001011267435    0.5600
      8 O8         -3.7617    5.2731   52.5616 O.2     1  ZINC001011267435   -0.5200
      9 N9         -3.2162    3.4611   51.3998 N.am    1  ZINC001011267435   -0.6100
     10 C10        -3.6424    2.2981   50.6090 C.3     1  ZINC001011267435    0.0700
     11 C11        -2.9395    2.3476   49.2467 C.3     1  ZINC001011267435    0.1000
     12 N12        -1.5030    2.5663   49.4671 N.am    1  ZINC001011267435   -0.6200
     13 C13        -0.5928    1.7158   48.9528 C.2     1  ZINC001011267435    0.5300
     14 O14         0.5900    1.9067   49.1416 O.2     1  ZINC001011267435   -0.5300
     15 C15        -1.0445    0.5277   48.1433 C.3     1  ZINC001011267435   -0.1100
     16 H16        -1.9132    0.8041   47.5459 H       1  ZINC001011267435    0.0900
     17 C17        -1.4172   -0.6192   49.0850 C.3     1  ZINC001011267435   -0.1500
     18 C18         0.0890    0.0800   47.2183 C.3     1  ZINC001011267435   -0.0800
     19 C19         0.9982   -0.8997   47.9628 C.3     1  ZINC001011267435   -0.1500
     20 C20        -0.5006   -0.6078   45.9853 C.3     1  ZINC001011267435   -0.1500
     21 C21        -1.0768    3.7294   50.2580 C.3     1  ZINC001011267435    0.0900
     22 C22        -1.7795    3.6829   51.6155 C.3     1  ZINC001011267435    0.1000
     23 C23        -6.3089    4.8988   50.8317 C.ar    1  ZINC001011267435   -0.1600
     24 C24        -7.6543    4.6420   50.6499 C.ar    1  ZINC001011267435    0.1100
     25 N25        -8.2403    3.6352   51.2662 N.ar    1  ZINC001011267435   -0.4600
     26 H26        -7.3767    2.2468   55.2692 H       1  ZINC001011267435    0.0600
     27 H27        -7.6384    3.7802   54.4040 H       1  ZINC001011267435    0.0500
     28 H28        -8.6840    3.3432   55.7766 H       1  ZINC001011267435    0.0600
     29 H29        -9.5810    1.4272   54.4832 H       1  ZINC001011267435    0.0700
     30 H30        -9.8427    2.9606   53.6179 H       1  ZINC001011267435    0.0600
     31 H31        -7.5902    0.9653   53.1079 H       1  ZINC001011267435    0.0800
     32 H32        -9.0029    1.2455   52.0618 H       1  ZINC001011267435    0.0900
     33 H33        -5.7026    2.3640   52.9946 H       1  ZINC001011267435    0.1400
     34 H34        -3.3670    1.3808   51.1295 H       1  ZINC001011267435    0.0800
     35 H35        -4.7223    2.3296   50.4647 H       1  ZINC001011267435    0.1100
     36 H36        -3.0896    1.4035   48.7229 H       1  ZINC001011267435    0.1100
     37 H37        -3.3474    3.1664   48.6541 H       1  ZINC001011267435    0.0700
     38 H38        -1.6644   -1.5046   48.4994 H       1  ZINC001011267435    0.0800
     39 H39        -0.5743   -0.8402   49.7398 H       1  ZINC001011267435    0.0600
     40 H40        -2.2785   -0.3297   49.6870 H       1  ZINC001011267435    0.0600
     41 H41         0.6687    0.9490   46.9072 H       1  ZINC001011267435    0.0800
     42 H42         1.8057   -1.2186   47.3038 H       1  ZINC001011267435    0.0600
     43 H43         1.4182   -0.4097   48.8413 H       1  ZINC001011267435    0.0600
     44 H44         0.4184   -1.7687   48.2740 H       1  ZINC001011267435    0.0600
     45 H45        -1.1483    0.0901   45.4549 H       1  ZINC001011267435    0.0600
     46 H46         0.3069   -0.9268   45.3263 H       1  ZINC001011267435    0.0600
     47 H47        -1.0804   -1.4769   46.2965 H       1  ZINC001011267435    0.0500
     48 H48         0.0031    3.6978   50.4023 H       1  ZINC001011267435    0.1000
     49 H49        -1.3522    4.6466   49.7374 H       1  ZINC001011267435    0.0800
     50 H50        -1.6284    4.6275   52.1382 H       1  ZINC001011267435    0.1100
     51 H51        -1.3735    2.8642   52.2098 H       1  ZINC001011267435    0.0800
     52 H52        -5.8341    5.7233   50.3204 H       1  ZINC001011267435    0.1500
     53 H53        -8.2326    5.2725   49.9907 H       1  ZINC001011267435    0.1700
@<TRIPOS>BOND
     1     1     2    1
     2     1    26    1
     3     1    27    1
     4     1    28    1
     5     2     3    1
     6     2    29    1
     7     2    30    1
     8     3     4    1
     9     3    31    1
    10     3    32    1
    11     4    25   ar
    12     4     5   ar
    13     5     6   ar
    14     5    33    1
    15     6     7    1
    16     6    23   ar
    17     7     8    2
    18     7     9   am
    19     9    22    1
    20     9    10    1
    21    10    11    1
    22    10    34    1
    23    10    35    1
    24    11    12    1
    25    11    36    1
    26    11    37    1
    27    12    13   am
    28    12    21    1
    29    13    14    2
    30    13    15    1
    31    15    16    1
    32    15    17    1
    33    15    18    1
    34    17    38    1
    35    17    39    1
    36    17    40    1
    37    18    19    1
    38    18    20    1
    39    18    41    1
    40    19    42    1
    41    19    43    1
    42    19    44    1
    43    20    45    1
    44    20    46    1
    45    20    47    1
    46    21    22    1
    47    21    48    1
    48    21    49    1
    49    22    50    1
    50    22    51    1
    51    23    24   ar
    52    23    52    1
    53    24    25   ar
    54    24    53    1
@<TRIPOS>SUBSTRUCTURE
     1 ZINC001011267435        1 TEMP              0 ****  ****    0 ROOT


##########                                Name:    ZINC000956479608
##########                DOCK_Rotatable_Bonds:                   5
##########                         Heavy_Atoms:                  25
##########                    Molecular_Weight:             345.442
##########                DOCK_Rotatable_Bonds:                   5
##########                       Formal_Charge:          -0.0100001
##########                     HBond_Acceptors:                   6
##########                        HBond_Donors:                   1
##########                         Heavy_Atoms:                  25
##########                          Grid_Score:          -29.097925
##########                     Grid_vdw_energy:          -28.980818
##########                      Grid_es_energy:           -0.117107
##########           Internal_energy_repulsive:           32.225185

@<TRIPOS>MOLECULE
ZINC000956479608
 52 55 1 0 0
SMALL
USER_CHARGES


@<TRIPOS>ATOM
      1 C1          3.2475    2.7224   44.6172 C.3     1  ZINC000956479608   -0.0900
      2 C2          1.7665    2.9464   44.4510 C.2     1  ZINC000956479608   -0.1100
      3 C3          0.7559    2.5646   45.2906 C.2     1  ZINC000956479608   -0.1000
      4 C4          0.8906    1.8374   46.5668 C.2     1  ZINC000956479608    0.6100
      5 O5          1.9902    1.6690   47.0575 O.2     1  ZINC000956479608   -0.5000
      6 N6         -0.2053    1.3594   47.1890 N.am    1  ZINC000956479608   -0.7100
      7 C7         -0.0714    0.6356   48.4556 C.3     1  ZINC000956479608    0.1800
      8 C8          0.8046   -0.6012   48.2458 C.3     1  ZINC000956479608   -0.1700
      9 C9          0.5775    1.5486   49.4985 C.3     1  ZINC000956479608   -0.1500
     10 C10        -0.2843    2.8018   49.6810 C.3     1  ZINC000956479608    0.1100
     11 N11        -1.6555    2.3891   50.0099 N.am    1  ZINC000956479608   -0.6100
     12 C12        -2.2734    2.8714   51.1063 C.2     1  ZINC000956479608    0.5500
     13 O13        -1.6979    3.6549   51.8314 O.2     1  ZINC000956479608   -0.5400
     14 C14        -3.6794    2.4371   51.4312 C.3     1  ZINC000956479608   -0.1900
     15 H15        -3.7759    1.4426   51.8668 H       1  ZINC000956479608    0.1200
     16 C16        -4.6571    3.5078   51.8973 C.3     1  ZINC000956479608   -0.1100
     17 H17        -4.2635    4.5230   51.9474 H       1  ZINC000956479608    0.1000
     18 C18        -5.6921    3.1760   52.9610 C.3     1  ZINC000956479608   -0.0900
     19 C19        -6.4334    1.8877   52.6037 C.3     1  ZINC000956479608   -0.1200
     20 C20        -7.0275    2.0393   51.1987 C.3     1  ZINC000956479608   -0.1200
     21 C21        -5.8965    1.9248   50.1765 C.3     1  ZINC000956479608   -0.0900
     22 C22        -4.8042    2.9175   50.5011 C.3     1  ZINC000956479608   -0.1100
     23 H23        -4.5077    3.5710   49.6808 H       1  ZINC000956479608    0.1100
     24 C24        -2.3404    1.4411   49.1207 C.3     1  ZINC000956479608    0.1000
     25 C25        -1.4556    0.2030   48.9444 C.3     1  ZINC000956479608   -0.1400
     26 O26        -0.3864    2.9873   44.7166 O.3     1  ZINC000956479608    0.1200
     27 N27        -0.1725    3.5550   43.6711 N.2     1  ZINC000956479608   -0.3400
     28 C28         1.0982    3.6050   43.3949 C.2     1  ZINC000956479608   -0.0100
     29 H29         3.6825    3.5596   45.1632 H       1  ZINC000956479608    0.0800
     30 H30         3.4153    1.7999   45.1729 H       1  ZINC000956479608    0.0900
     31 H31         3.7158    2.6459   43.6359 H       1  ZINC000956479608    0.0800
     32 H32        -1.0827    1.4948   46.7982 H       1  ZINC000956479608    0.4100
     33 H33         1.7904   -0.2933   47.8970 H       1  ZINC000956479608    0.0800
     34 H34         0.9043   -1.1399   49.1880 H       1  ZINC000956479608    0.0700
     35 H35         0.3431   -1.2514   47.5025 H       1  ZINC000956479608    0.0600
     36 H36         0.6549    1.0188   50.4480 H       1  ZINC000956479608    0.0800
     37 H37         1.5727    1.8373   49.1604 H       1  ZINC000956479608    0.1000
     38 H38         0.1194    3.4080   50.4919 H       1  ZINC000956479608    0.0900
     39 H39        -0.2884    3.3802   48.7570 H       1  ZINC000956479608    0.0600
     40 H40        -5.1928    3.0490   53.9215 H       1  ZINC000956479608    0.0700
     41 H41        -6.4081    3.9946   53.0339 H       1  ZINC000956479608    0.0700
     42 H42        -5.7375    1.0489   52.6181 H       1  ZINC000956479608    0.0600
     43 H43        -7.2340    1.7146   53.3228 H       1  ZINC000956479608    0.0700
     44 H44        -7.7599    1.2511   51.0240 H       1  ZINC000956479608    0.0700
     45 H45        -7.5064    3.0142   51.1071 H       1  ZINC000956479608    0.0700
     46 H46        -5.4841    0.9162   50.2055 H       1  ZINC000956479608    0.0700
     47 H47        -6.2892    2.1237   49.1794 H       1  ZINC000956479608    0.0700
     48 H48        -3.2934    1.1493   49.5620 H       1  ZINC000956479608    0.0900
     49 H49        -2.5122    1.9084   48.1510 H       1  ZINC000956479608    0.0700
     50 H50        -1.9075   -0.4659   48.2120 H       1  ZINC000956479608    0.0900
     51 H51        -1.3591   -0.3141   49.8992 H       1  ZINC000956479608    0.0900
     52 H52         1.5524    4.0547   42.5245 H       1  ZINC000956479608    0.2000
@<TRIPOS>BOND
     1     1     2    1
     2     1    29    1
     3     1    30    1
     4     1    31    1
     5     2    28    1
     6     2     3    2
     7     3     4    1
     8     3    26    1
     9     4     5    2
    10     4     6   am
    11     6     7    1
    12     6    32    1
    13     7    25    1
    14     7     8    1
    15     7     9    1
    16     8    33    1
    17     8    34    1
    18     8    35    1
    19     9    10    1
    20     9    36    1
    21     9    37    1
    22    10    11    1
    23    10    38    1
    24    10    39    1
    25    11    12   am
    26    11    24    1
    27    12    13    2
    28    12    14    1
    29    14    15    1
    30    14    22    1
    31    14    16    1
    32    16    17    1
    33    16    22    1
    34    16    18    1
    35    18    19    1
    36    18    40    1
    37    18    41    1
    38    19    20    1
    39    19    42    1
    40    19    43    1
    41    20    21    1
    42    20    44    1
    43    20    45    1
    44    21    22    1
    45    21    46    1
    46    21    47    1
    47    22    23    1
    48    24    25    1
    49    24    48    1
    50    24    49    1
    51    25    50    1
    52    25    51    1
    53    26    27    1
    54    27    28    2
    55    28    52    1
@<TRIPOS>SUBSTRUCTURE
     1 ZINC000956479608        1 TEMP              0 ****  ****    0 ROOT


##########                                Name:    ZINC000945148121
##########                DOCK_Rotatable_Bonds:                   6
##########                         Heavy_Atoms:                  24
##########                    Molecular_Weight:             332.446
##########                DOCK_Rotatable_Bonds:                   6
##########                       Formal_Charge:           0.0100009
##########                     HBond_Acceptors:                   6
##########                        HBond_Donors:                   2
##########                         Heavy_Atoms:                  24
##########                          Grid_Score:          -29.088947
##########                     Grid_vdw_energy:          -26.572289
##########                      Grid_es_energy:           -2.516660
##########           Internal_energy_repulsive:           17.021112

@<TRIPOS>MOLECULE
ZINC000945148121
 52 54 1 0 0
SMALL
USER_CHARGES


@<TRIPOS>ATOM
      1 O1          0.8935    5.1648   54.5522 O.2     1  ZINC000945148121   -0.5100
      2 C2          1.1750    3.9929   54.6877 C.2     1  ZINC000945148121    0.5200
      3 C3          1.5686    3.4644   56.0430 C.3     1  ZINC000945148121   -0.0500
      4 C4          0.3297    3.0931   56.8166 C.2     1  ZINC000945148121    0.0100
      5 C5          0.2369    2.1196   57.7424 C.2     1  ZINC000945148121   -0.0500
      6 N6         -1.0559    2.1228   58.1923 N.pl3   1  ZINC000945148121   -0.5700
      7 C7         -1.7085    3.0990   57.5254 C.2     1  ZINC000945148121    0.1800
      8 N8         -0.8722    3.6784   56.7079 N.2     1  ZINC000945148121   -0.4700
      9 N9          1.1304    3.1620   53.6275 N.am    1  ZINC000945148121   -0.7300
     10 C10         0.7478    3.6758   52.3100 C.3     1  ZINC000945148121    0.1500
     11 C11         1.3468    2.7828   51.2209 C.3     1  ZINC000945148121   -0.1400
     12 C12         0.9735    3.3426   49.8446 C.3     1  ZINC000945148121    0.1100
     13 N13        -0.4870    3.4853   49.7724 N.am    1  ZINC000945148121   -0.6100
     14 C14        -1.1826    2.9258   48.7626 C.2     1  ZINC000945148121    0.5200
     15 O15        -2.3877    3.0520   48.7135 O.2     1  ZINC000945148121   -0.5400
     16 C16        -0.4627    2.1433   47.6946 C.3     1  ZINC000945148121   -0.1000
     17 C17        -0.1541    0.7609   48.2023 C.3     1  ZINC000945148121   -0.1200
     18 C18         1.1755    0.2130   47.6494 C.3     1  ZINC000945148121   -0.1200
     19 C19         1.3748    0.5254   46.1541 C.3     1  ZINC000945148121   -0.1200
     20 C20         0.1147    0.3369   45.3536 C.3     1  ZINC000945148121   -0.1200
     21 C21        -0.6063    1.6963   45.2475 C.3     1  ZINC000945148121   -0.1200
     22 C22        -1.3630    2.0180   46.4485 C.3     1  ZINC000945148121   -0.1000
     23 C23        -1.1751    4.2492   50.8222 C.3     1  ZINC000945148121    0.1100
     24 C24        -0.7777    3.6791   52.1874 C.3     1  ZINC000945148121   -0.1400
     25 H25         2.1982    2.5830   55.9206 H       1  ZINC000945148121    0.1000
     26 H26         2.1198    4.2319   56.5864 H       1  ZINC000945148121    0.1000
     27 H27         1.0299    1.4623   58.0671 H       1  ZINC000945148121    0.1800
     28 H28        -1.4328    1.5339   58.8646 H       1  ZINC000945148121    0.4200
     29 H29        -2.7490    3.3598   57.6507 H       1  ZINC000945148121    0.2100
     30 H30         1.3518    2.2239   53.7368 H       1  ZINC000945148121    0.4000
     31 H31         1.1238    4.6922   52.1933 H       1  ZINC000945148121    0.0900
     32 H32         2.4317    2.7623   51.3232 H       1  ZINC000945148121    0.0800
     33 H33         0.9521    1.7718   51.3215 H       1  ZINC000945148121    0.0700
     34 H34         1.4430    4.3167   49.7068 H       1  ZINC000945148121    0.0700
     35 H35         1.3126    2.6579   49.0673 H       1  ZINC000945148121    0.1000
     36 H36         0.4628    2.6537   47.4279 H       1  ZINC000945148121    0.1000
     37 H37        -0.0986    0.7890   49.2906 H       1  ZINC000945148121    0.0700
     38 H38        -0.9611    0.0893   47.9094 H       1  ZINC000945148121    0.0700
     39 H39         1.9985    0.6527   48.2131 H       1  ZINC000945148121    0.0600
     40 H40         1.1953   -0.8679   47.7884 H       1  ZINC000945148121    0.0700
     41 H41         1.7070    1.5585   46.0508 H       1  ZINC000945148121    0.0600
     42 H42         2.1472   -0.1327   45.7561 H       1  ZINC000945148121    0.0600
     43 H43         0.3652   -0.0235   44.3558 H       1  ZINC000945148121    0.0600
     44 H44        -0.5328   -0.3830   45.8541 H       1  ZINC000945148121    0.0700
     45 H45         0.1353    2.4769   45.0778 H       1  ZINC000945148121    0.0600
     46 H46        -1.2881    1.6689   44.3976 H       1  ZINC000945148121    0.0600
     47 H47        -2.0994    1.2336   46.6225 H       1  ZINC000945148121    0.0700
     48 H48        -1.8854    2.9622   46.2941 H       1  ZINC000945148121    0.0700
     49 H49        -0.8807    5.2971   50.7640 H       1  ZINC000945148121    0.0700
     50 H50        -2.2535    4.1625   50.6898 H       1  ZINC000945148121    0.1000
     51 H51        -1.1523    2.6597   52.2790 H       1  ZINC000945148121    0.0700
     52 H52        -1.2048    4.2966   52.9777 H       1  ZINC000945148121    0.0800
@<TRIPOS>BOND
     1     1     2    2
     2     2     3    1
     3     2     9   am
     4     3     4    1
     5     3    25    1
     6     3    26    1
     7     4     8    1
     8     4     5    2
     9     5     6    1
    10     5    27    1
    11     6     7    1
    12     6    28    1
    13     7     8    2
    14     7    29    1
    15     9    10    1
    16     9    30    1
    17    10    24    1
    18    10    11    1
    19    10    31    1
    20    11    12    1
    21    11    32    1
    22    11    33    1
    23    12    13    1
    24    12    34    1
    25    12    35    1
    26    13    14   am
    27    13    23    1
    28    14    15    2
    29    14    16    1
    30    16    22    1
    31    16    17    1
    32    16    36    1
    33    17    18    1
    34    17    37    1
    35    17    38    1
    36    18    19    1
    37    18    39    1
    38    18    40    1
    39    19    20    1
    40    19    41    1
    41    19    42    1
    42    20    21    1
    43    20    43    1
    44    20    44    1
    45    21    22    1
    46    21    45    1
    47    21    46    1
    48    22    47    1
    49    22    48    1
    50    23    24    1
    51    23    49    1
    52    23    50    1
    53    24    51    1
    54    24    52    1
@<TRIPOS>SUBSTRUCTURE
     1 ZINC000945148121        1 TEMP              0 ****  ****    0 ROOT


##########                                Name:    ZINC000774689801
##########                DOCK_Rotatable_Bonds:                   4
##########                         Heavy_Atoms:                  24
##########                    Molecular_Weight:             347.395
##########                DOCK_Rotatable_Bonds:                   4
##########                       Formal_Charge:         -0.00999961
##########                     HBond_Acceptors:                   8
##########                        HBond_Donors:                   1
##########                         Heavy_Atoms:                  24
##########                          Grid_Score:          -29.081715
##########                     Grid_vdw_energy:          -30.568724
##########                      Grid_es_energy:            1.487009
##########           Internal_energy_repulsive:            4.180939

@<TRIPOS>MOLECULE
ZINC000774689801
 41 44 1 0 0
SMALL
USER_CHARGES


@<TRIPOS>ATOM
      1 C1         -6.6915    3.6799   51.2336 C.3     1  ZINC000774689801   -0.1200
      2 C2         -6.7912    2.1829   51.3754 C.2     1  ZINC000774689801    0.0600
      3 C3         -5.7245    1.3781   51.2434 C.2     1  ZINC000774689801   -0.2800
      4 C4         -4.3641    1.8359   50.9533 C.2     1  ZINC000774689801    0.5500
      5 O5         -3.7927    2.5760   51.7312 O.2     1  ZINC000774689801   -0.4900
      6 O6         -3.7447    1.4369   49.8233 O.3     1  ZINC000774689801   -0.3400
      7 C7         -2.5663    2.1827   49.4190 C.3     1  ZINC000774689801    0.0900
      8 C8         -1.8881    1.4690   48.2479 C.3     1  ZINC000774689801   -0.1300
      9 H9         -2.6183    1.2253   47.4762 H       1  ZINC000774689801    0.1200
     10 C10        -0.7551    2.3443   47.6636 C.3     1  ZINC000774689801   -0.1300
     11 C11         0.3038    1.2824   47.2926 C.3     1  ZINC000774689801    0.1000
     12 N12         0.0438    0.1432   48.1805 N.am    1  ZINC000774689801   -0.7400
     13 C13        -1.1852    0.2175   48.7259 C.2     1  ZINC000774689801    0.5200
     14 O14        -1.6564   -0.5974   49.4905 O.2     1  ZINC000774689801   -0.5100
     15 S15        -6.1889   -0.2998   51.4679 S.3     1  ZINC000774689801    0.3000
     16 C16        -7.8675    0.1509   51.7423 C.2     1  ZINC000774689801    0.1000
     17 C17        -7.9955    1.5412   51.6579 C.2     1  ZINC000774689801   -0.2500
     18 C18        -9.3451    2.1006   51.8636 C.2     1  ZINC000774689801    0.5700
     19 O19        -9.5360    3.3022   51.8043 O.2     1  ZINC000774689801   -0.5000
     20 N20       -10.3670    1.2503   52.1193 N.am    1  ZINC000774689801   -0.5500
     21 C21       -11.7863    1.5606   52.3627 C.3     1  ZINC000774689801    0.0900
     22 C22       -12.5432    0.2330   52.1517 C.3     1  ZINC000774689801   -0.1300
     23 C23       -11.4495   -0.8084   52.4725 C.3     1  ZINC000774689801   -0.0800
     24 C24       -10.1444   -0.0871   52.1796 C.2     1  ZINC000774689801    0.4200
     25 N25        -8.9538   -0.5960   52.0048 N.2     1  ZINC000774689801   -0.5100
     26 H26        -6.4753    4.1233   52.2056 H       1  ZINC000774689801    0.0800
     27 H27        -5.8911    3.9263   50.5358 H       1  ZINC000774689801    0.1000
     28 H28        -7.6358    4.0729   50.8569 H       1  ZINC000774689801    0.0800
     29 H29        -2.8593    3.1867   49.1122 H       1  ZINC000774689801    0.0900
     30 H30        -1.8718    2.2470   50.2567 H       1  ZINC000774689801    0.0800
     31 H31        -1.0947    2.8823   46.7786 H       1  ZINC000774689801    0.1000
     32 H32        -0.3691    3.0345   48.4137 H       1  ZINC000774689801    0.0900
     33 H33         0.1885    0.9827   46.2509 H       1  ZINC000774689801    0.0800
     34 H34         1.3065    1.6735   47.4645 H       1  ZINC000774689801    0.0800
     35 H35         0.6755   -0.5728   48.3515 H       1  ZINC000774689801    0.4100
     36 H36       -11.9246    1.9150   53.3841 H       1  ZINC000774689801    0.1000
     37 H37       -12.1353    2.3101   51.6525 H       1  ZINC000774689801    0.1000
     38 H38       -13.3794    0.1466   52.8455 H       1  ZINC000774689801    0.1100
     39 H39       -12.8825    0.1373   51.1203 H       1  ZINC000774689801    0.0900
     40 H40       -11.4966   -1.0996   53.5218 H       1  ZINC000774689801    0.1200
     41 H41       -11.5547   -1.6818   51.8288 H       1  ZINC000774689801    0.1200
@<TRIPOS>BOND
     1     1     2    1
     2     1    26    1
     3     1    27    1
     4     1    28    1
     5     2    17    1
     6     2     3    2
     7     3     4    1
     8     3    15    1
     9     4     5    2
    10     4     6    1
    11     6     7    1
    12     7     8    1
    13     7    29    1
    14     7    30    1
    15     8     9    1
    16     8    13    1
    17     8    10    1
    18    10    11    1
    19    10    31    1
    20    10    32    1
    21    11    12    1
    22    11    33    1
    23    11    34    1
    24    12    13   am
    25    12    35    1
    26    13    14    2
    27    15    16    1
    28    16    25    1
    29    16    17    2
    30    17    18    1
    31    18    19    2
    32    18    20   am
    33    20    24    1
    34    20    21    1
    35    21    22    1
    36    21    36    1
    37    21    37    1
    38    22    23    1
    39    22    38    1
    40    22    39    1
    41    23    24    1
    42    23    40    1
    43    23    41    1
    44    24    25    2
@<TRIPOS>SUBSTRUCTURE
     1 ZINC000774689801        1 TEMP              0 ****  ****    0 ROOT


##########                                Name:    ZINC000626935317
##########                DOCK_Rotatable_Bonds:                   6
##########                         Heavy_Atoms:                  25
##########                    Molecular_Weight:             366.441
##########                DOCK_Rotatable_Bonds:                   6
##########                       Formal_Charge:          -0.0200006
##########                     HBond_Acceptors:                   9
##########                        HBond_Donors:                   2
##########                         Heavy_Atoms:                  25
##########                          Grid_Score:          -29.039999
##########                     Grid_vdw_energy:          -27.744492
##########                      Grid_es_energy:           -1.295507
##########           Internal_energy_repulsive:           11.557322

@<TRIPOS>MOLECULE
ZINC000626935317
 47 49 1 0 0
SMALL
USER_CHARGES


@<TRIPOS>ATOM
      1 C1         -2.3219    4.4028   52.1001 C.3     1  ZINC000626935317    0.0900
      2 N2         -1.7350    3.4942   51.1120 N.am    1  ZINC000626935317   -0.6200
      3 C3         -0.4854    3.0037   51.1806 C.2     1  ZINC000626935317    0.5200
      4 O4          0.3119    3.2543   52.0595 O.2     1  ZINC000626935317   -0.5200
      5 C5         -0.2184    2.0932   50.0023 C.3     1  ZINC000626935317   -0.1500
      6 C6         -1.6240    1.7795   49.4395 C.3     1  ZINC000626935317   -0.1200
      7 H7         -2.0183    0.8574   49.8664 H       1  ZINC000626935317    0.1200
      8 C8         -1.5981    1.7058   47.9345 C.2     1  ZINC000626935317    0.5300
      9 O9         -2.3517    2.3952   47.2805 O.2     1  ZINC000626935317   -0.5200
     10 N10        -0.7374    0.8737   47.3153 N.am    1  ZINC000626935317   -0.7100
     11 C11        -0.7134    0.8008   45.8523 C.3     1  ZINC000626935317    0.1200
     12 C12         0.5039    1.4964   45.2206 C.3     1  ZINC000626935317   -0.1600
     13 C13         1.2412    0.1534   45.3529 C.3     1  ZINC000626935317    0.1200
     14 N14         1.9355   -0.0115   46.6323 N.am    1  ZINC000626935317   -1.1100
     15 S15         3.5007    0.5032   46.7974 S.o2    1  ZINC000626935317    2.6100
     16 C16         3.9310    0.1003   48.5130 C.3     1  ZINC000626935317   -0.6700
     17 O17         4.2349   -0.3123   45.8945 O.2     1  ZINC000626935317   -0.9500
     18 O18         3.4273    1.9111   46.6191 O.2     1  ZINC000626935317   -0.9500
     19 C19        -0.1409   -0.5198   45.3107 C.3     1  ZINC000626935317   -0.1600
     20 C20        -2.4381    2.9977   49.9232 C.3     1  ZINC000626935317    0.2000
     21 H21        -2.4560    3.7693   49.1534 H       1  ZINC000626935317    0.1100
     22 C22        -3.8427    2.5801   50.2746 C.ar    1  ZINC000626935317   -0.1600
     23 C23        -4.9030    2.9173   49.4476 C.ar    1  ZINC000626935317   -0.0500
     24 C24        -6.1783    2.5113   49.8107 C.ar    1  ZINC000626935317   -0.1700
     25 C25        -6.3487    1.7892   50.9763 C.ar    1  ZINC000626935317    0.1000
     26 N26        -5.3165    1.4860   51.7392 N.ar    1  ZINC000626935317   -0.4800
     27 C27        -4.0896    1.8509   51.4227 C.ar    1  ZINC000626935317    0.1200
     28 H28        -2.8086    3.8221   52.8837 H       1  ZINC000626935317    0.0600
     29 H29        -1.5368    5.0186   52.5389 H       1  ZINC000626935317    0.0800
     30 H30        -3.0568    5.0437   51.6131 H       1  ZINC000626935317    0.0700
     31 H31         0.3867    2.6051   49.2542 H       1  ZINC000626935317    0.1100
     32 H32         0.2738    1.1780   50.3313 H       1  ZINC000626935317    0.1200
     33 H33        -0.1338    0.3232   47.8383 H       1  ZINC000626935317    0.4000
     34 H34        -1.6634    1.0833   45.3987 H       1  ZINC000626935317    0.1100
     35 H35         0.3427    1.8062   44.1881 H       1  ZINC000626935317    0.1100
     36 H36         0.9245    2.2883   45.8405 H       1  ZINC000626935317    0.0800
     37 H37         1.8709   -0.0853   44.4958 H       1  ZINC000626935317    0.1100
     38 H38         1.4782   -0.4223   47.3828 H       1  ZINC000626935317    0.4100
     39 H39         3.8376   -0.9744   48.6683 H       1  ZINC000626935317    0.1300
     40 H40         4.9575    0.4084   48.7121 H       1  ZINC000626935317    0.1300
     41 H41         3.2566    0.6252   49.1896 H       1  ZINC000626935317    0.1300
     42 H42        -0.2408   -1.3556   46.0032 H       1  ZINC000626935317    0.0900
     43 H43        -0.4783   -0.7612   44.3028 H       1  ZINC000626935317    0.1100
     44 H44        -4.7397    3.4832   48.5424 H       1  ZINC000626935317    0.1400
     45 H45        -7.0276    2.7567   49.1903 H       1  ZINC000626935317    0.1400
     46 H46        -7.3387    1.4695   51.2663 H       1  ZINC000626935317    0.1600
     47 H47        -3.2691    1.5843   52.0723 H       1  ZINC000626935317    0.1500
@<TRIPOS>BOND
     1     1     2    1
     2     1    28    1
     3     1    29    1
     4     1    30    1
     5     2    20    1
     6     2     3   am
     7     3     4    2
     8     3     5    1
     9     5     6    1
    10     5    31    1
    11     5    32    1
    12     6     7    1
    13     6     8    1
    14     6    20    1
    15     8     9    2
    16     8    10   am
    17    10    11    1
    18    10    33    1
    19    11    19    1
    20    11    12    1
    21    11    34    1
    22    12    13    1
    23    12    35    1
    24    12    36    1
    25    13    14    1
    26    13    19    1
    27    13    37    1
    28    14    15   am
    29    14    38    1
    30    15    16    1
    31    15    17    2
    32    15    18    2
    33    16    39    1
    34    16    40    1
    35    16    41    1
    36    19    42    1
    37    19    43    1
    38    20    21    1
    39    20    22    1
    40    22    27   ar
    41    22    23   ar
    42    23    24   ar
    43    23    44    1
    44    24    25   ar
    45    24    45    1
    46    25    26   ar
    47    25    46    1
    48    26    27   ar
    49    27    47    1
@<TRIPOS>SUBSTRUCTURE
     1 ZINC000626935317        1 TEMP              0 ****  ****    0 ROOT


##########                                Name:    ZINC000279452407
##########                DOCK_Rotatable_Bonds:                   6
##########                         Heavy_Atoms:                  24
##########                    Molecular_Weight:              375.47
##########                DOCK_Rotatable_Bonds:                   6
##########                       Formal_Charge:          0.00999929
##########                     HBond_Acceptors:                  10
##########                        HBond_Donors:                   3
##########                         Heavy_Atoms:                  24
##########                          Grid_Score:          -29.029919
##########                     Grid_vdw_energy:          -28.657942
##########                      Grid_es_energy:           -0.371977
##########           Internal_energy_repulsive:           27.606239

@<TRIPOS>MOLECULE
ZINC000279452407
 45 47 1 0 0
SMALL
USER_CHARGES


@<TRIPOS>ATOM
      1 C1          1.0371    2.6373   47.3166 C.3     1  ZINC000279452407   -0.1600
      2 C2          1.4617    1.4123   46.5042 C.3     1  ZINC000279452407    0.0600
      3 H3          2.1287    0.7867   47.0974 H       1  ZINC000279452407    0.0700
      4 O4          2.1258    1.8304   45.2981 O.3     1  ZINC000279452407   -0.3700
      5 C5          1.7840    0.8713   44.2737 C.3     1  ZINC000279452407    0.0500
      6 C6          0.2859    0.5718   44.5414 C.3     1  ZINC000279452407   -0.1400
      7 C7          0.2228    0.6065   46.0867 C.3     1  ZINC000279452407    0.0700
      8 C8         -1.0501    1.3170   46.5400 C.3     1  ZINC000279452407    0.1100
      9 N9         -1.1675    1.1758   48.0012 N.am    1  ZINC000279452407   -0.6300
     10 C10        -1.4082    2.2451   48.7856 C.2     1  ZINC000279452407    0.7200
     11 O11        -1.5318    3.3479   48.2890 O.2     1  ZINC000279452407   -0.5800
     12 N12        -1.5121    2.0917   50.1206 N.am    1  ZINC000279452407   -0.7500
     13 C13        -1.7738    3.2539   50.9732 C.3     1  ZINC000279452407    0.2000
     14 C14        -3.2073    3.2237   51.4373 C.2     1  ZINC000279452407   -0.1700
     15 C15        -3.7961    4.1649   52.1768 C.2     1  ZINC000279452407   -0.1400
     16 C16        -5.1240    3.9211   52.4819 C.2     1  ZINC000279452407    0.0100
     17 C17        -5.6137    2.7820   51.9902 C.2     1  ZINC000279452407   -0.7900
     18 S18        -7.2644    2.2067   52.2116 S.o2    1  ZINC000279452407    2.7300
     19 N19        -7.2949    0.6160   51.7523 N.am    1  ZINC000279452407   -1.2500
     20 O20        -7.5114    2.2251   53.6109 O.2     1  ZINC000279452407   -0.9600
     21 O21        -8.0642    2.9111   51.2719 O.2     1  ZINC000279452407   -0.9500
     22 S22        -4.3620    1.9460   51.0804 S.3     1  ZINC000279452407    0.2500
     23 C23        -1.0141   -0.1694   48.5780 C.3     1  ZINC000279452407    0.0700
     24 C24         0.2825   -0.7842   48.0388 C.3     1  ZINC000279452407    0.0400
     25 O25         0.2780   -0.7149   46.6099 O.3     1  ZINC000279452407   -0.3600
     26 H26         0.6168    2.3138   48.2689 H       1  ZINC000279452407    0.0700
     27 H27         1.9049    3.2710   47.4990 H       1  ZINC000279452407    0.0600
     28 H28         0.2868    3.1997   46.7607 H       1  ZINC000279452407    0.0800
     29 H29         1.9175    1.3047   43.2825 H       1  ZINC000279452407    0.1000
     30 H30         2.3814   -0.0341   44.3813 H       1  ZINC000279452407    0.0700
     31 H31        -0.3492    1.3438   44.1067 H       1  ZINC000279452407    0.1000
     32 H32         0.0124   -0.4135   44.1641 H       1  ZINC000279452407    0.1000
     33 H33        -0.9933    2.3733   46.2775 H       1  ZINC000279452407    0.1200
     34 H34        -1.9151    0.8623   46.0573 H       1  ZINC000279452407    0.0800
     35 H35        -1.4135    1.2118   50.5168 H       1  ZINC000279452407    0.4000
     36 H36        -1.1112    3.2266   51.8382 H       1  ZINC000279452407    0.1000
     37 H37        -1.5945    4.1677   50.4068 H       1  ZINC000279452407    0.0900
     38 H38        -3.2759    5.0499   52.5124 H       1  ZINC000279452407    0.1600
     39 H39        -5.7185    4.6015   53.0737 H       1  ZINC000279452407    0.1600
     40 H40        -7.0541    0.3682   50.8460 H       1  ZINC000279452407    0.4200
     41 H41        -7.5536   -0.0680   52.3897 H       1  ZINC000279452407    0.4200
     42 H42        -0.9618   -0.0983   49.6643 H       1  ZINC000279452407    0.0900
     43 H43        -1.8619   -0.7906   48.2890 H       1  ZINC000279452407    0.0900
     44 H44         1.1370   -0.2303   48.4275 H       1  ZINC000279452407    0.0600
     45 H45         0.3495   -1.8258   48.3527 H       1  ZINC000279452407    0.1100
@<TRIPOS>BOND
     1     1     2    1
     2     1    26    1
     3     1    27    1
     4     1    28    1
     5     2     3    1
     6     2     7    1
     7     2     4    1
     8     4     5    1
     9     5     6    1
    10     5    29    1
    11     5    30    1
    12     6     7    1
    13     6    31    1
    14     6    32    1
    15     7    25    1
    16     7     8    1
    17     8     9    1
    18     8    33    1
    19     8    34    1
    20     9    10   am
    21     9    23    1
    22    10    11    2
    23    10    12   am
    24    12    13    1
    25    12    35    1
    26    13    14    1
    27    13    36    1
    28    13    37    1
    29    14    22    1
    30    14    15    2
    31    15    16    1
    32    15    38    1
    33    16    17    2
    34    16    39    1
    35    17    18    1
    36    17    22    1
    37    18    19   am
    38    18    20    2
    39    18    21    2
    40    19    40    1
    41    19    41    1
    42    23    24    1
    43    23    42    1
    44    23    43    1
    45    24    25    1
    46    24    44    1
    47    24    45    1
@<TRIPOS>SUBSTRUCTURE
     1 ZINC000279452407        1 TEMP              0 ****  ****    0 ROOT


##########                                Name:    ZINC001002468398
##########                DOCK_Rotatable_Bonds:                   7
##########                         Heavy_Atoms:                  24
##########                    Molecular_Weight:             341.358
##########                DOCK_Rotatable_Bonds:                   7
##########                       Formal_Charge:           0.0100001
##########                     HBond_Acceptors:                   8
##########                        HBond_Donors:                   0
##########                         Heavy_Atoms:                  24
##########                          Grid_Score:          -28.995651
##########                     Grid_vdw_energy:          -27.865124
##########                      Grid_es_energy:           -1.130528
##########           Internal_energy_repulsive:           36.655952

@<TRIPOS>MOLECULE
ZINC001002468398
 45 47 1 0 0
SMALL
USER_CHARGES


@<TRIPOS>ATOM
      1 C1          3.4998   -0.3042   40.7716 C.3     1  ZINC001002468398   -0.1400
      2 C2          3.0132   -0.1673   42.2157 C.3     1  ZINC001002468398   -0.0500
      3 C3          2.9818    1.2898   42.5992 C.2     1  ZINC001002468398    0.0500
      4 C4          2.1402    1.8735   43.4953 C.2     1  ZINC001002468398   -0.0800
      5 C5          1.0863    1.1993   44.2749 C.2     1  ZINC001002468398    0.6000
      6 O6          0.8996    0.0052   44.1394 O.2     1  ZINC001002468398   -0.5300
      7 N7          0.3296    1.9060   45.1377 N.am    1  ZINC001002468398   -0.6000
      8 C8          0.5546    3.3444   45.3007 C.3     1  ZINC001002468398    0.0900
      9 C9         -0.7176    1.2359   45.9124 C.3     1  ZINC001002468398    0.1000
     10 C10        -0.1503    0.7969   47.2638 C.3     1  ZINC001002468398    0.1300
     11 H11         0.5859    1.5223   47.6100 H       1  ZINC001002468398    0.0800
     12 C12         0.5052   -0.5939   47.1311 C.3     1  ZINC001002468398   -0.1300
     13 C13         0.1185   -1.2889   48.4633 C.3     1  ZINC001002468398   -0.1300
     14 C14        -1.3028   -0.7235   48.7080 C.3     1  ZINC001002468398    0.1000
     15 N15        -1.2365    0.6789   48.2476 N.am    1  ZINC001002468398   -0.6100
     16 C16        -2.0394    1.6797   48.6601 C.2     1  ZINC001002468398    0.5600
     17 O17        -1.8940    2.7975   48.2122 O.2     1  ZINC001002468398   -0.5100
     18 C18        -3.1179    1.4100   49.6775 C.3     1  ZINC001002468398   -0.2000
     19 H19        -3.2265    0.3693   49.9828 H       1  ZINC001002468398    0.1500
     20 C20        -4.3873    2.2608   49.6040 C.3     1  ZINC001002468398   -0.1500
     21 C21        -3.3786    2.4866   50.7330 C.3     1  ZINC001002468398    0.2300
     22 F22        -3.7386    2.0599   52.0158 F       1  ZINC001002468398   -0.1500
     23 F23        -2.5979    3.6463   50.6794 F       1  ZINC001002468398   -0.1400
     24 N24         2.4550    3.1967   43.5367 N.2     1  ZINC001002468398   -0.4600
     25 C25         3.4352    3.4128   42.7116 C.2     1  ZINC001002468398    0.1700
     26 O26         3.7825    2.2580   42.1260 O.3     1  ZINC001002468398   -0.2000
     27 H27         2.8217    0.2316   40.1074 H       1  ZINC001002468398    0.0600
     28 H28         4.5016    0.1161   40.6844 H       1  ZINC001002468398    0.0600
     29 H29         3.5224   -1.3582   40.4943 H       1  ZINC001002468398    0.0700
     30 H30         2.0114   -0.5877   42.3030 H       1  ZINC001002468398    0.1200
     31 H31         3.6912   -0.7032   42.8800 H       1  ZINC001002468398    0.0900
     32 H32         0.3470    3.8536   44.3595 H       1  ZINC001002468398    0.0700
     33 H33        -0.1075    3.7301   46.0760 H       1  ZINC001002468398    0.0700
     34 H34         1.5912    3.5199   45.5879 H       1  ZINC001002468398    0.0700
     35 H35        -1.5475    1.9242   46.0730 H       1  ZINC001002468398    0.0900
     36 H36        -1.0711    0.3618   45.3655 H       1  ZINC001002468398    0.0900
     37 H37         0.0925   -1.1351   46.2798 H       1  ZINC001002468398    0.1000
     38 H38         1.5879   -0.5031   47.0436 H       1  ZINC001002468398    0.0800
     39 H39         0.0931   -2.3722   48.3457 H       1  ZINC001002468398    0.0900
     40 H40         0.7973   -1.0004   49.2659 H       1  ZINC001002468398    0.0800
     41 H41        -2.0379   -1.2804   48.1270 H       1  ZINC001002468398    0.0800
     42 H42        -1.5488   -0.7617   49.7692 H       1  ZINC001002468398    0.0800
     43 H43        -4.4425    3.0157   48.8196 H       1  ZINC001002468398    0.1300
     44 H44        -5.3311    1.7800   49.8611 H       1  ZINC001002468398    0.1400
     45 H45         3.8998    4.3707   42.5297 H       1  ZINC001002468398    0.2600
@<TRIPOS>BOND
     1     1     2    1
     2     1    27    1
     3     1    28    1
     4     1    29    1
     5     2     3    1
     6     2    30    1
     7     2    31    1
     8     3    26    1
     9     3     4    2
    10     4     5    1
    11     4    24    1
    12     5     6    2
    13     5     7   am
    14     7     8    1
    15     7     9    1
    16     8    32    1
    17     8    33    1
    18     8    34    1
    19     9    10    1
    20     9    35    1
    21     9    36    1
    22    10    11    1
    23    10    15    1
    24    10    12    1
    25    12    13    1
    26    12    37    1
    27    12    38    1
    28    13    14    1
    29    13    39    1
    30    13    40    1
    31    14    15    1
    32    14    41    1
    33    14    42    1
    34    15    16   am
    35    16    17    2
    36    16    18    1
    37    18    19    1
    38    18    21    1
    39    18    20    1
    40    20    21    1
    41    20    43    1
    42    20    44    1
    43    21    22    1
    44    21    23    1
    45    24    25    2
    46    25    26    1
    47    25    45    1
@<TRIPOS>SUBSTRUCTURE
     1 ZINC001002468398        1 TEMP              0 ****  ****    0 ROOT


##########                                Name:    ZINC000676204775
##########                DOCK_Rotatable_Bonds:                   4
##########                         Heavy_Atoms:                  25
##########                    Molecular_Weight:             359.452
##########                DOCK_Rotatable_Bonds:                   4
##########                       Formal_Charge:          0.00999978
##########                     HBond_Acceptors:                   8
##########                        HBond_Donors:                   2
##########                         Heavy_Atoms:                  25
##########                          Grid_Score:          -28.990353
##########                     Grid_vdw_energy:          -28.078506
##########                      Grid_es_energy:           -0.911846
##########           Internal_energy_repulsive:            5.772650

@<TRIPOS>MOLECULE
ZINC000676204775
 46 49 1 0 0
SMALL
USER_CHARGES


@<TRIPOS>ATOM
      1 C1         -5.1650    2.9014   52.4382 C.3     1  ZINC000676204775   -0.1600
      2 C2         -6.0760    2.6275   51.2399 C.3     1  ZINC000676204775    0.1600
      3 C3         -5.2253    2.4725   49.9776 C.3     1  ZINC000676204775   -0.1600
      4 N4         -6.8326    1.3950   51.4733 N.pl3   1  ZINC000676204775   -0.3900
      5 N5         -6.3746    0.0996   51.2111 N.2     1  ZINC000676204775   -0.2500
      6 C6         -7.2888   -0.7714   51.5302 C.2     1  ZINC000676204775    0.0900
      7 C7         -8.4430   -0.0393   52.0414 C.ar    1  ZINC000676204775   -0.2100
      8 C8         -9.6986   -0.4196   52.5275 C.ar    1  ZINC000676204775    0.0800
      9 C9        -10.5803    0.5368   52.9412 C.ar    1  ZINC000676204775   -0.7200
     10 S10       -12.1617    0.0593   53.5541 S.o2    1  ZINC000676204775    2.6900
     11 O11       -12.0002   -1.2363   54.1151 O.2     1  ZINC000676204775   -0.9300
     12 O12       -12.6584    1.1686   54.2903 O.2     1  ZINC000676204775   -0.9600
     13 N13       -13.1611   -0.1189   52.2457 N.am    1  ZINC000676204775   -1.1100
     14 C14       -13.4150    1.0184   51.3577 C.3     1  ZINC000676204775    0.2400
     15 H15       -12.5527    1.6851   51.3584 H       1  ZINC000676204775    0.1000
     16 C16       -14.6581    1.7797   51.8347 C.3     1  ZINC000676204775   -0.1200
     17 C17       -15.0655    2.8144   50.7835 C.3     1  ZINC000676204775   -0.1200
     18 C18       -15.6600    2.1039   49.5610 C.3     1  ZINC000676204775   -0.0400
     19 C19       -14.7037    1.0165   49.1371 C.2     1  ZINC000676204775   -0.2300
     20 C20       -14.6577    0.3556   47.9656 C.2     1  ZINC000676204775    0.0600
     21 N21       -13.6358   -0.5269   48.0335 N.pl3   1  ZINC000676204775   -0.4800
     22 N22       -13.0361   -0.3994   49.2957 N.2     1  ZINC000676204775   -0.2400
     23 C23       -13.6739    0.5220   49.9559 C.2     1  ZINC000676204775    0.0500
     24 C24       -10.2425    1.8832   52.8837 C.ar    1  ZINC000676204775    0.0100
     25 C25        -9.0226    2.2793   52.4130 C.ar    1  ZINC000676204775   -0.1500
     26 C26        -8.1004    1.3259   51.9891 C.ar    1  ZINC000676204775    0.1700
     27 H27        -5.7710    3.0119   53.3375 H       1  ZINC000676204775    0.0600
     28 H28        -4.4730    2.0690   52.5663 H       1  ZINC000676204775    0.0700
     29 H29        -4.6020    3.8184   52.2645 H       1  ZINC000676204775    0.0800
     30 H30        -6.7679    3.4599   51.1118 H       1  ZINC000676204775    0.1000
     31 H31        -4.5334    1.6400   50.1057 H       1  ZINC000676204775    0.0700
     32 H32        -5.8743    2.2773   49.1239 H       1  ZINC000676204775    0.0600
     33 H33        -4.6623    3.3895   49.8039 H       1  ZINC000676204775    0.0800
     34 H34        -7.2072   -1.8440   51.4337 H       1  ZINC000676204775    0.2000
     35 H35        -9.9688   -1.4641   52.5750 H       1  ZINC000676204775    0.1500
     36 H36       -13.5783   -0.9762   52.0672 H       1  ZINC000676204775    0.4200
     37 H37       -15.4769    1.0769   51.9881 H       1  ZINC000676204775    0.0800
     38 H38       -14.4350    2.2857   52.7740 H       1  ZINC000676204775    0.0800
     39 H39       -15.8091    3.4890   51.2079 H       1  ZINC000676204775    0.0700
     40 H40       -14.1892    3.3870   50.4795 H       1  ZINC000676204775    0.0700
     41 H41       -16.6228    1.6654   49.8227 H       1  ZINC000676204775    0.0700
     42 H42       -15.7891    2.8177   48.7475 H       1  ZINC000676204775    0.0700
     43 H43       -15.3177    0.5036   47.1237 H       1  ZINC000676204775    0.1800
     44 H44       -13.3647   -1.1403   47.3328 H       1  ZINC000676204775    0.4400
     45 H45       -10.9533    2.6259   53.2150 H       1  ZINC000676204775    0.1500
     46 H46        -8.7726    3.3292   52.3736 H       1  ZINC000676204775    0.1300
@<TRIPOS>BOND
     1     1     2    1
     2     1    27    1
     3     1    28    1
     4     1    29    1
     5     2     3    1
     6     2     4    1
     7     2    30    1
     8     3    31    1
     9     3    32    1
    10     3    33    1
    11     4    26    1
    12     4     5    1
    13     5     6    2
    14     6     7    1
    15     6    34    1
    16     7    26   ar
    17     7     8   ar
    18     8     9   ar
    19     8    35    1
    20     9    10    1
    21     9    24   ar
    22    10    11    2
    23    10    12    2
    24    10    13   am
    25    13    14    1
    26    13    36    1
    27    14    15    1
    28    14    23    1
    29    14    16    1
    30    16    17    1
    31    16    37    1
    32    16    38    1
    33    17    18    1
    34    17    39    1
    35    17    40    1
    36    18    19    1
    37    18    41    1
    38    18    42    1
    39    19    23    1
    40    19    20    2
    41    20    21    1
    42    20    43    1
    43    21    22    1
    44    21    44    1
    45    22    23    2
    46    24    25   ar
    47    24    45    1
    48    25    26   ar
    49    25    46    1
@<TRIPOS>SUBSTRUCTURE
     1 ZINC000676204775        1 TEMP              0 ****  ****    0 ROOT


##########                                Name:    ZINC000081577146
##########                DOCK_Rotatable_Bonds:                   4
##########                         Heavy_Atoms:                  25
##########                    Molecular_Weight:             355.464
##########                DOCK_Rotatable_Bonds:                   4
##########                       Formal_Charge:                0.02
##########                     HBond_Acceptors:                   7
##########                        HBond_Donors:                   0
##########                         Heavy_Atoms:                  25
##########                          Grid_Score:          -28.961807
##########                     Grid_vdw_energy:          -28.065998
##########                      Grid_es_energy:           -0.895809
##########           Internal_energy_repulsive:           10.859725

@<TRIPOS>MOLECULE
ZINC000081577146
 46 49 1 0 0
SMALL
USER_CHARGES


@<TRIPOS>ATOM
      1 C1         -1.0141   -1.1155   48.7050 C.3     1  ZINC000081577146   -0.0700
      2 C2         -1.5123    0.3022   48.5907 C.2     1  ZINC000081577146    0.2900
      3 N3         -1.0837    1.0905   47.6483 N.2     1  ZINC000081577146   -0.4800
      4 S4         -1.8871    2.5697   47.8827 S.3     1  ZINC000081577146    0.1900
      5 C5         -2.7692    2.0300   49.2610 C.2     1  ZINC000081577146    0.2700
      6 N6         -3.6757    2.7519   50.0161 N.3     1  ZINC000081577146   -0.4300
      7 C7         -3.3076    2.7351   51.4387 C.3     1  ZINC000081577146    0.0700
      8 C8         -4.2872    3.6080   52.2267 C.3     1  ZINC000081577146    0.0500
      9 N9         -5.6537    3.1034   52.0333 N.3     1  ZINC000081577146   -0.5200
     10 C10        -6.6165    3.8701   52.8352 C.3     1  ZINC000081577146    0.1900
     11 H11        -6.3440    4.9254   52.8190 H       1  ZINC000081577146    0.0700
     12 C12        -6.5984    3.3608   54.2779 C.3     1  ZINC000081577146   -0.1500
     13 C13        -7.9986    3.6993   52.2595 C.2     1  ZINC000081577146    0.1900
     14 N14        -8.6608    4.6075   51.5992 N.2     1  ZINC000081577146   -0.4500
     15 C15        -9.8515    4.1034   51.2419 C.2     1  ZINC000081577146   -0.0200
     16 C16        -9.9125    2.8297   51.7081 C.2     1  ZINC000081577146    0.0000
     17 C17       -11.0401    1.8869   51.5505 C.ar    1  ZINC000081577146   -0.0200
     18 C18       -10.9573    0.5998   52.0840 C.ar    1  ZINC000081577146   -0.1000
     19 C19       -12.0135   -0.2750   51.9338 C.ar    1  ZINC000081577146   -0.1200
     20 C20       -13.1526    0.1209   51.2556 C.ar    1  ZINC000081577146   -0.1100
     21 C21       -13.2408    1.3951   50.7239 C.ar    1  ZINC000081577146   -0.1100
     22 C22       -12.1943    2.2818   50.8724 C.ar    1  ZINC000081577146   -0.0900
     23 O23        -8.7424    2.5875   52.3389 O.3     1  ZINC000081577146   -0.2000
     24 C24        -6.0219    3.1201   50.6106 C.3     1  ZINC000081577146    0.0600
     25 C25        -5.0423    2.2473   49.8226 C.3     1  ZINC000081577146    0.0500
     26 N26        -2.3965    0.7796   49.4355 N.2     1  ZINC000081577146   -0.5400
     27 H27        -1.6534   -1.7738   48.1166 H       1  ZINC000081577146    0.0900
     28 H28         0.0082   -1.1727   48.3312 H       1  ZINC000081577146    0.0900
     29 H29        -1.0370   -1.4255   49.7497 H       1  ZINC000081577146    0.0900
     30 H30        -3.3496    1.7123   51.8131 H       1  ZINC000081577146    0.0700
     31 H31        -2.2966    3.1249   51.5573 H       1  ZINC000081577146    0.1100
     32 H32        -4.0335    3.5739   53.2861 H       1  ZINC000081577146    0.1000
     33 H33        -4.2255    4.6364   51.8706 H       1  ZINC000081577146    0.0600
     34 H34        -6.8710    2.3056   54.2942 H       1  ZINC000081577146    0.0800
     35 H35        -5.5988    3.4844   54.6944 H       1  ZINC000081577146    0.0800
     36 H36        -7.3128    3.9297   54.8730 H       1  ZINC000081577146    0.0700
     37 H37       -10.6211    4.6170   50.6849 H       1  ZINC000081577146    0.1900
     38 H38       -10.0685    0.2893   52.6131 H       1  ZINC000081577146    0.1300
     39 H39       -11.9508   -1.2713   52.3462 H       1  ZINC000081577146    0.1300
     40 H40       -13.9764   -0.5680   51.1404 H       1  ZINC000081577146    0.1300
     41 H41       -14.1325    1.6976   50.1950 H       1  ZINC000081577146    0.1300
     42 H42       -12.2646    3.2763   50.4572 H       1  ZINC000081577146    0.1300
     43 H43        -7.0328    2.7303   50.4920 H       1  ZINC000081577146    0.0900
     44 H44        -5.9798    4.1430   50.2362 H       1  ZINC000081577146    0.0500
     45 H45        -5.2961    2.2814   48.7631 H       1  ZINC000081577146    0.1000
     46 H46        -5.1040    1.2190   50.1787 H       1  ZINC000081577146    0.0800
@<TRIPOS>BOND
     1     1     2    1
     2     1    27    1
     3     1    28    1
     4     1    29    1
     5     2    26    1
     6     2     3    2
     7     3     4    1
     8     4     5    1
     9     5     6    1
    10     5    26    2
    11     6    25    1
    12     6     7    1
    13     7     8    1
    14     7    30    1
    15     7    31    1
    16     8     9    1
    17     8    32    1
    18     8    33    1
    19     9    10    1
    20     9    24    1
    21    10    11    1
    22    10    12    1
    23    10    13    1
    24    12    34    1
    25    12    35    1
    26    12    36    1
    27    13    23    1
    28    13    14    2
    29    14    15    1
    30    15    16    2
    31    15    37    1
    32    16    17    1
    33    16    23    1
    34    17    22   ar
    35    17    18   ar
    36    18    19   ar
    37    18    38    1
    38    19    20   ar
    39    19    39    1
    40    20    21   ar
    41    20    40    1
    42    21    22   ar
    43    21    41    1
    44    22    42    1
    45    24    25    1
    46    24    43    1
    47    24    44    1
    48    25    45    1
    49    25    46    1
@<TRIPOS>SUBSTRUCTURE
     1 ZINC000081577146        1 TEMP              0 ****  ****    0 ROOT


##########                                Name:    ZINC000451500596
##########                DOCK_Rotatable_Bonds:                   7
##########                         Heavy_Atoms:                  25
##########                    Molecular_Weight:             365.497
##########                DOCK_Rotatable_Bonds:                   7
##########                       Formal_Charge:           0.0400004
##########                     HBond_Acceptors:                   7
##########                        HBond_Donors:                   2
##########                         Heavy_Atoms:                  25
##########                          Grid_Score:          -28.955008
##########                     Grid_vdw_energy:          -27.385401
##########                      Grid_es_energy:           -1.569606
##########           Internal_energy_repulsive:           12.403772

@<TRIPOS>MOLECULE
ZINC000451500596
 52 54 1 0 0
SMALL
USER_CHARGES


@<TRIPOS>ATOM
      1 C1         -6.4099    4.8859   57.7858 C.3     1  ZINC000451500596   -0.6700
      2 S2         -7.0870    3.6955   56.5962 S.o2    1  ZINC000451500596    2.6100
      3 O3         -6.6843    2.3740   56.9291 O.2     1  ZINC000451500596   -0.9500
      4 O4         -8.4454    3.9967   56.3077 O.2     1  ZINC000451500596   -0.9600
      5 N5         -6.2873    4.0225   55.1836 N.am    1  ZINC000451500596   -1.1200
      6 C6         -6.5804    3.2428   53.9785 C.3     1  ZINC000451500596    0.1200
      7 C7         -6.4049    4.1282   52.7430 C.3     1  ZINC000451500596   -0.1000
      8 H8         -5.3759    4.4822   52.6808 H       1  ZINC000451500596    0.0900
      9 C9         -7.3731    5.3273   52.8103 C.3     1  ZINC000451500596   -0.1200
     10 C10        -7.8208    5.5369   51.3424 C.3     1  ZINC000451500596   -0.1300
     11 C11        -7.9469    4.0867   50.8131 C.3     1  ZINC000451500596   -0.1300
     12 C12        -6.7685    3.3390   51.4731 C.3     1  ZINC000451500596    0.1400
     13 H13        -7.0703    2.3254   51.7371 H       1  ZINC000451500596    0.1000
     14 N14        -5.6242    3.2996   50.5591 N.am    1  ZINC000451500596   -0.7200
     15 C15        -4.5095    2.6249   50.9036 C.2     1  ZINC000451500596    0.5300
     16 O16        -4.4532    2.0516   51.9710 O.2     1  ZINC000451500596   -0.5300
     17 C17        -3.3331    2.5828   49.9628 C.3     1  ZINC000451500596   -0.1300
     18 H18        -3.5618    3.1126   49.0380 H       1  ZINC000451500596    0.1000
     19 C19        -2.0694    3.1781   50.6377 C.3     1  ZINC000451500596   -0.1200
     20 C20        -0.9346    2.4574   49.8681 C.3     1  ZINC000451500596    0.0500
     21 N21        -1.4446    1.0890   49.6376 N.3     1  ZINC000451500596   -0.4900
     22 C22        -0.9852    0.5820   48.4199 C.ar    1  ZINC000451500596    0.0800
     23 C23        -1.5266    1.0413   47.2259 C.ar    1  ZINC000451500596   -0.0900
     24 C24        -1.0698    0.5382   46.0236 C.ar    1  ZINC000451500596   -0.1100
     25 C25        -0.0749   -0.4222   46.0075 C.ar    1  ZINC000451500596   -0.1200
     26 C26         0.4662   -0.8817   47.1943 C.ar    1  ZINC000451500596   -0.1100
     27 C27         0.0180   -0.3787   48.3999 C.ar    1  ZINC000451500596   -0.1500
     28 C28        -2.9212    1.1250   49.6689 C.3     1  ZINC000451500596    0.0600
     29 H29        -5.3351    4.7322   57.8818 H       1  ZINC000451500596    0.1300
     30 H30        -6.6022    5.8997   57.4347 H       1  ZINC000451500596    0.1300
     31 H31        -6.8857    4.7410   58.7558 H       1  ZINC000451500596    0.1300
     32 H32        -5.6246    4.7303   55.1541 H       1  ZINC000451500596    0.4200
     33 H33        -5.8971    2.3958   53.9184 H       1  ZINC000451500596    0.0700
     34 H34        -7.6070    2.8791   54.0219 H       1  ZINC000451500596    0.0900
     35 H35        -8.2304    5.0905   53.4405 H       1  ZINC000451500596    0.0800
     36 H36        -6.8581    6.2130   53.1823 H       1  ZINC000451500596    0.0700
     37 H37        -8.7826    6.0481   51.3011 H       1  ZINC000451500596    0.0700
     38 H38        -7.0648    6.0880   50.7830 H       1  ZINC000451500596    0.0700
     39 H39        -8.8968    3.6496   51.1207 H       1  ZINC000451500596    0.0800
     40 H40        -7.8506    4.0671   49.7276 H       1  ZINC000451500596    0.0700
     41 H41        -5.6688    3.7591   49.7060 H       1  ZINC000451500596    0.4000
     42 H42        -2.0185    4.2567   50.4887 H       1  ZINC000451500596    0.0800
     43 H43        -2.0401    2.9303   51.6988 H       1  ZINC000451500596    0.0800
     44 H44        -0.7441    2.9565   48.9179 H       1  ZINC000451500596    0.0600
     45 H45        -0.0268    2.4277   50.4707 H       1  ZINC000451500596    0.0900
     46 H46        -2.3041    1.7909   47.2378 H       1  ZINC000451500596    0.1300
     47 H47        -1.4902    0.8949   45.0950 H       1  ZINC000451500596    0.1300
     48 H48         0.2800   -0.8145   45.0660 H       1  ZINC000451500596    0.1200
     49 H49         1.2430   -1.6318   47.1782 H       1  ZINC000451500596    0.1200
     50 H50         0.4411   -0.7377   49.3263 H       1  ZINC000451500596    0.1200
     51 H51        -3.2913    0.4712   50.4586 H       1  ZINC000451500596    0.1000
     52 H52        -3.3203    0.8088   48.7052 H       1  ZINC000451500596    0.0700
@<TRIPOS>BOND
     1     1     2    1
     2     1    29    1
     3     1    30    1
     4     1    31    1
     5     2     3    2
     6     2     4    2
     7     2     5   am
     8     5     6    1
     9     5    32    1
    10     6     7    1
    11     6    33    1
    12     6    34    1
    13     7     8    1
    14     7    12    1
    15     7     9    1
    16     9    10    1
    17     9    35    1
    18     9    36    1
    19    10    11    1
    20    10    37    1
    21    10    38    1
    22    11    12    1
    23    11    39    1
    24    11    40    1
    25    12    13    1
    26    12    14    1
    27    14    15   am
    28    14    41    1
    29    15    16    2
    30    15    17    1
    31    17    18    1
    32    17    28    1
    33    17    19    1
    34    19    20    1
    35    19    42    1
    36    19    43    1
    37    20    21    1
    38    20    44    1
    39    20    45    1
    40    21    22    1
    41    21    28    1
    42    22    27   ar
    43    22    23   ar
    44    23    24   ar
    45    23    46    1
    46    24    25   ar
    47    24    47    1
    48    25    26   ar
    49    25    48    1
    50    26    27   ar
    51    26    49    1
    52    27    50    1
    53    28    51    1
    54    28    52    1
@<TRIPOS>SUBSTRUCTURE
     1 ZINC000451500596        1 TEMP              0 ****  ****    0 ROOT


##########                                Name:    ZINC000501032137
##########                DOCK_Rotatable_Bonds:                  10
##########                         Heavy_Atoms:                  25
##########                    Molecular_Weight:             407.307
##########                DOCK_Rotatable_Bonds:                  10
##########                       Formal_Charge:           0.0099998
##########                     HBond_Acceptors:                   5
##########                        HBond_Donors:                   1
##########                         Heavy_Atoms:                  25
##########                          Grid_Score:          -28.903236
##########                     Grid_vdw_energy:          -28.549734
##########                      Grid_es_energy:           -0.353503
##########           Internal_energy_repulsive:           16.648540

@<TRIPOS>MOLECULE
ZINC000501032137
 48 50 1 0 0
SMALL
USER_CHARGES


@<TRIPOS>ATOM
      1 C1         -8.2924    3.3431   57.1223 C.3     1  ZINC000501032137   -0.1500
      2 C2         -6.9063    2.7087   57.2533 C.3     1  ZINC000501032137   -0.1200
      3 C3         -6.0324    3.1447   56.0755 C.3     1  ZINC000501032137    0.0600
      4 O4         -6.5229    2.5496   54.8726 O.3     1  ZINC000501032137   -0.3800
      5 C5         -5.9599    3.1004   53.6802 C.3     1  ZINC000501032137    0.0500
      6 C6         -5.8482    2.0064   52.6163 C.3     1  ZINC000501032137    0.1600
      7 H7         -5.0215    1.3409   52.8649 H       1  ZINC000501032137    0.1000
      8 C8         -5.5940    2.6473   51.2505 C.3     1  ZINC000501032137   -0.0900
      9 C9         -4.1113    2.6942   50.9858 C.ar    1  ZINC000501032137   -0.0600
     10 C10        -3.3430    3.7037   51.5348 C.ar    1  ZINC000501032137   -0.0900
     11 C11        -1.9825    3.7473   51.2922 C.ar    1  ZINC000501032137   -0.1100
     12 C12        -1.3902    2.7816   50.5007 C.ar    1  ZINC000501032137   -0.0900
     13 C13        -2.1588    1.7711   49.9510 C.ar    1  ZINC000501032137   -0.0800
     14 Br14       -1.3489    0.4495   48.8678 Br      1  ZINC000501032137   -0.0600
     15 C15        -3.5187    1.7246   50.1985 C.ar    1  ZINC000501032137   -0.0800
     16 N16        -7.0957    1.2397   52.5714 N.am    1  ZINC000501032137   -0.7100
     17 C17        -8.2322    1.8261   52.1459 C.2     1  ZINC000501032137    0.6100
     18 O18        -8.2217    2.9912   51.7978 O.2     1  ZINC000501032137   -0.5200
     19 C19        -9.4878    1.0550   52.1023 C.2     1  ZINC000501032137   -0.0800
     20 C20       -10.7500    1.5641   52.1099 C.2     1  ZINC000501032137    0.0800
     21 C21       -11.1289    3.0217   52.1647 C.3     1  ZINC000501032137   -0.0800
     22 C22       -12.1923    3.4373   53.1832 C.3     1  ZINC000501032137   -0.1700
     23 C23       -10.7261    3.8099   53.4127 C.3     1  ZINC000501032137   -0.1500
     24 O24       -11.5932    0.5207   52.0588 O.3     1  ZINC000501032137   -0.2000
     25 C25       -10.8659   -0.6047   52.0207 C.2     1  ZINC000501032137    0.1800
     26 N26        -9.6031   -0.2993   52.0410 N.2     1  ZINC000501032137   -0.4600
     27 H27        -8.1965    4.4289   57.1236 H       1  ZINC000501032137    0.0600
     28 H28        -8.7531    3.0200   56.1889 H       1  ZINC000501032137    0.0600
     29 H29        -8.9149    3.0324   57.9614 H       1  ZINC000501032137    0.0600
     30 H30        -6.4455    3.0317   58.1868 H       1  ZINC000501032137    0.0700
     31 H31        -7.0021    1.6228   57.2521 H       1  ZINC000501032137    0.0700
     32 H32        -6.0632    4.2303   55.9827 H       1  ZINC000501032137    0.0500
     33 H33        -5.0050    2.8237   56.2471 H       1  ZINC000501032137    0.0500
     34 H34        -6.6012    3.9012   53.3118 H       1  ZINC000501032137    0.0700
     35 H35        -4.9688    3.4991   53.8968 H       1  ZINC000501032137    0.0600
     36 H36        -6.0829    2.0570   50.4756 H       1  ZINC000501032137    0.0900
     37 H37        -5.9966    3.6602   51.2439 H       1  ZINC000501032137    0.0800
     38 H38        -3.8056    4.4587   52.1531 H       1  ZINC000501032137    0.1200
     39 H39        -1.3826    4.5363   51.7211 H       1  ZINC000501032137    0.1300
     40 H40        -0.3275    2.8160   50.3111 H       1  ZINC000501032137    0.1300
     41 H41        -4.1191    0.9358   49.7699 H       1  ZINC000501032137    0.1200
     42 H42        -7.1038    0.3100   52.8479 H       1  ZINC000501032137    0.4100
     43 H43       -11.1128    3.5478   51.2102 H       1  ZINC000501032137    0.1500
     44 H44       -12.8761    4.2370   52.8988 H       1  ZINC000501032137    0.1100
     45 H45       -12.6177    2.6566   53.8136 H       1  ZINC000501032137    0.1000
     46 H46       -10.1871    3.2742   54.1941 H       1  ZINC000501032137    0.1000
     47 H47       -10.4455    4.8546   53.2794 H       1  ZINC000501032137    0.1100
     48 H48       -11.2663   -1.6068   51.9764 H       1  ZINC000501032137    0.2500
@<TRIPOS>BOND
     1     1     2    1
     2     1    27    1
     3     1    28    1
     4     1    29    1
     5     2     3    1
     6     2    30    1
     7     2    31    1
     8     3     4    1
     9     3    32    1
    10     3    33    1
    11     4     5    1
    12     5     6    1
    13     5    34    1
    14     5    35    1
    15     6     7    1
    16     6     8    1
    17     6    16    1
    18     8     9    1
    19     8    36    1
    20     8    37    1
    21     9    15   ar
    22     9    10   ar
    23    10    11   ar
    24    10    38    1
    25    11    12   ar
    26    11    39    1
    27    12    13   ar
    28    12    40    1
    29    13    14    1
    30    13    15   ar
    31    15    41    1
    32    16    17   am
    33    16    42    1
    34    17    18    2
    35    17    19    1
    36    19    26    1
    37    19    20    2
    38    20    21    1
    39    20    24    1
    40    21    23    1
    41    21    22    1
    42    21    43    1
    43    22    23    1
    44    22    44    1
    45    22    45    1
    46    23    46    1
    47    23    47    1
    48    24    25    1
    49    25    26    2
    50    25    48    1
@<TRIPOS>SUBSTRUCTURE
     1 ZINC000501032137        1 TEMP              0 ****  ****    0 ROOT


##########                                Name:    ZINC000750807956
##########                DOCK_Rotatable_Bonds:                  11
##########                         Heavy_Atoms:                  26
##########                    Molecular_Weight:             368.473
##########                DOCK_Rotatable_Bonds:                  11
##########                       Formal_Charge:        -8.12113e-07
##########                     HBond_Acceptors:                   7
##########                        HBond_Donors:                   1
##########                         Heavy_Atoms:                  26
##########                          Grid_Score:          -28.899599
##########                     Grid_vdw_energy:          -28.475771
##########                      Grid_es_energy:           -0.423828
##########           Internal_energy_repulsive:           93.038811

@<TRIPOS>MOLECULE
ZINC000750807956
 58 59 1 0 0
SMALL
USER_CHARGES


@<TRIPOS>ATOM
      1 C1         -0.5332    4.3136   54.8425 C.3     1  ZINC000750807956   -0.1500
      2 C2         -0.3857    4.7333   53.3785 C.3     1  ZINC000750807956    0.0700
      3 O3         -0.3574    3.5509   52.5364 O.3     1  ZINC000750807956   -0.3600
      4 C4         -0.4609    3.7433   51.2120 C.2     1  ZINC000750807956    0.4800
      5 O5         -0.5026    4.8655   50.7661 O.2     1  ZINC000750807956   -0.4900
      6 C6         -0.5251    2.5598   50.2814 C.3     1  ZINC000750807956    0.1600
      7 H7         -0.0757    1.6913   50.7630 H       1  ZINC000750807956    0.1000
      8 C8          0.2336    2.8804   48.9897 C.3     1  ZINC000750807956   -0.1300
      9 C9          0.0480    1.7319   47.9953 C.3     1  ZINC000750807956   -0.1200
     10 C10        -1.4373    1.5815   47.6585 C.3     1  ZINC000750807956   -0.1400
     11 C11        -2.2149    1.2462   48.9351 C.3     1  ZINC000750807956    0.1100
     12 N12        -1.9267    2.2691   49.9503 N.am    1  ZINC000750807956   -0.6100
     13 C13        -2.9288    2.9310   50.5617 C.2     1  ZINC000750807956    0.5100
     14 O14        -2.6780    3.7730   51.3979 O.2     1  ZINC000750807956   -0.5000
     15 C15        -4.3610    2.6252   50.2066 C.3     1  ZINC000750807956   -0.1400
     16 C16        -5.2943    3.4439   51.1009 C.3     1  ZINC000750807956    0.2100
     17 H17        -4.8501    4.4207   51.2917 H       1  ZINC000750807956    0.1000
     18 N18        -5.4939    2.7416   52.3709 N.am    1  ZINC000750807956   -0.7000
     19 C19        -5.7910    3.4374   53.4863 C.2     1  ZINC000750807956    0.6600
     20 O20        -5.8947    4.6471   53.4382 O.2     1  ZINC000750807956   -0.5600
     21 O21        -5.9728    2.7921   54.6539 O.3     1  ZINC000750807956   -0.3700
     22 C22        -6.3224    3.6021   55.8072 C.3     1  ZINC000750807956    0.1400
     23 C23        -5.1963    4.5982   56.0911 C.3     1  ZINC000750807956   -0.1800
     24 C24        -7.6177    4.3646   55.5212 C.3     1  ZINC000750807956   -0.1400
     25 C25        -6.5216    2.6969   57.0245 C.3     1  ZINC000750807956   -0.1800
     26 C26        -6.6426    3.6248   50.4007 C.3     1  ZINC000750807956   -0.1800
     27 C27        -7.2380    5.0338   50.3676 C.3     1  ZINC000750807956   -0.1700
     28 C28        -6.6585    4.4179   49.0925 C.3     1  ZINC000750807956   -0.1800
     29 H29         0.3106    3.6850   55.1269 H       1  ZINC000750807956    0.0600
     30 H30        -0.5545    5.2013   55.4746 H       1  ZINC000750807956    0.0800
     31 H31        -1.4609    3.7554   54.9686 H       1  ZINC000750807956    0.0700
     32 H32        -1.2295    5.3620   53.0940 H       1  ZINC000750807956    0.0700
     33 H33         0.5421    5.2915   53.2524 H       1  ZINC000750807956    0.0600
     34 H34        -0.1565    3.8021   48.5579 H       1  ZINC000750807956    0.0800
     35 H35         1.2938    3.0021   49.2112 H       1  ZINC000750807956    0.0800
     36 H36         0.6070    1.9463   47.0845 H       1  ZINC000750807956    0.0800
     37 H37         0.4157    0.8059   48.4374 H       1  ZINC000750807956    0.0700
     38 H38        -1.8117    2.5154   47.2392 H       1  ZINC000750807956    0.0700
     39 H39        -1.5663    0.7788   46.9326 H       1  ZINC000750807956    0.0800
     40 H40        -3.2833    1.2355   48.7200 H       1  ZINC000750807956    0.0900
     41 H41        -1.9049    0.2691   49.3058 H       1  ZINC000750807956    0.0800
     42 H42        -4.5395    2.8829   49.1627 H       1  ZINC000750807956    0.1200
     43 H43        -4.5536    1.5628   50.3566 H       1  ZINC000750807956    0.1100
     44 H44        -5.4123    1.7757   52.4092 H       1  ZINC000750807956    0.4000
     45 H45        -5.0544    5.2430   55.2239 H       1  ZINC000750807956    0.0600
     46 H46        -5.4588    5.2061   56.9569 H       1  ZINC000750807956    0.0700
     47 H47        -4.2736    4.0550   56.2949 H       1  ZINC000750807956    0.0900
     48 H48        -8.4199    3.6549   55.3189 H       1  ZINC000750807956    0.0700
     49 H49        -7.8802    4.9726   56.3869 H       1  ZINC000750807956    0.0800
     50 H50        -7.4758    5.0094   54.6539 H       1  ZINC000750807956    0.0700
     51 H51        -5.5988    2.1537   57.2283 H       1  ZINC000750807956    0.0900
     52 H52        -6.7841    3.3049   57.8903 H       1  ZINC000750807956    0.0700
     53 H53        -7.3238    1.9873   56.8223 H       1  ZINC000750807956    0.0600
     54 H54        -7.3349    2.7875   50.4901 H       1  ZINC000750807956    0.1100
     55 H55        -8.3221    5.1238   50.4353 H       1  ZINC000750807956    0.0900
     56 H56        -6.6690    5.8319   50.8446 H       1  ZINC000750807956    0.0900
     57 H57        -5.7083    4.8109   48.7306 H       1  ZINC000750807956    0.1200
     58 H58        -7.3614    4.1028   48.3214 H       1  ZINC000750807956    0.0900
@<TRIPOS>BOND
     1     1     2    1
     2     1    29    1
     3     1    30    1
     4     1    31    1
     5     2     3    1
     6     2    32    1
     7     2    33    1
     8     3     4    1
     9     4     5    2
    10     4     6    1
    11     6     7    1
    12     6    12    1
    13     6     8    1
    14     8     9    1
    15     8    34    1
    16     8    35    1
    17     9    10    1
    18     9    36    1
    19     9    37    1
    20    10    11    1
    21    10    38    1
    22    10    39    1
    23    11    12    1
    24    11    40    1
    25    11    41    1
    26    12    13   am
    27    13    14    2
    28    13    15    1
    29    15    16    1
    30    15    42    1
    31    15    43    1
    32    16    17    1
    33    16    18    1
    34    16    26    1
    35    18    19   am
    36    18    44    1
    37    19    20    2
    38    19    21    1
    39    21    22    1
    40    22    23    1
    41    22    24    1
    42    22    25    1
    43    23    45    1
    44    23    46    1
    45    23    47    1
    46    24    48    1
    47    24    49    1
    48    24    50    1
    49    25    51    1
    50    25    52    1
    51    25    53    1
    52    26    28    1
    53    26    27    1
    54    26    54    1
    55    27    28    1
    56    27    55    1
    57    27    56    1
    58    28    57    1
    59    28    58    1
@<TRIPOS>SUBSTRUCTURE
     1 ZINC000750807956        1 TEMP              0 ****  ****    0 ROOT


##########                                Name:    ZINC000194290865
##########                DOCK_Rotatable_Bonds:                   7
##########                         Heavy_Atoms:                  28
##########                    Molecular_Weight:             387.479
##########                DOCK_Rotatable_Bonds:                   7
##########                       Formal_Charge:          -0.0400003
##########                     HBond_Acceptors:                   7
##########                        HBond_Donors:                   0
##########                         Heavy_Atoms:                  28
##########                          Grid_Score:          -28.899332
##########                     Grid_vdw_energy:          -27.647326
##########                      Grid_es_energy:           -1.252006
##########           Internal_energy_repulsive:           30.688940

@<TRIPOS>MOLECULE
ZINC000194290865
 57 59 1 0 0
SMALL
USER_CHARGES


@<TRIPOS>ATOM
      1 C1        -13.9052    2.4779   50.8067 C.3     1  ZINC000194290865   -0.1500
      2 C2        -14.0832    2.7350   52.3044 C.3     1  ZINC000194290865    0.0600
      3 O3        -12.9160    2.2523   53.0205 O.3     1  ZINC000194290865   -0.3600
      4 C4        -12.8154    0.9256   53.1979 C.2     1  ZINC000194290865    0.4700
      5 O5        -13.6959    0.1955   52.8085 O.2     1  ZINC000194290865   -0.4900
      6 C6        -11.6043    0.3466   53.8829 C.3     1  ZINC000194290865   -0.0600
      7 C7        -10.4658    0.1587   52.8783 C.3     1  ZINC000194290865   -0.0700
      8 C8        -10.9969   -0.5534   51.6326 C.3     1  ZINC000194290865   -0.1700
      9 C9         -9.9032    1.5256   52.4834 C.3     1  ZINC000194290865   -0.1600
     10 C10       -11.1538    1.2637   55.0434 C.3     1  ZINC000194290865   -0.1200
     11 C11       -11.8069    0.5986   56.2811 C.3     1  ZINC000194290865    0.0900
     12 N12       -11.6880   -0.8490   55.9912 N.am    1  ZINC000194290865   -0.6100
     13 C13       -11.3947   -1.8308   56.8667 C.2     1  ZINC000194290865    0.5800
     14 O14       -11.3295   -2.9836   56.4876 O.2     1  ZINC000194290865   -0.5000
     15 C15       -11.1520   -1.5049   58.2899 C.ar    1  ZINC000194290865    0.0100
     16 C16       -12.2197   -1.3767   59.1991 C.ar    1  ZINC000194290865   -0.2200
     17 C17       -11.9454   -1.0661   60.5422 C.ar    1  ZINC000194290865    0.3000
     18 N18       -10.6941   -0.8973   60.9413 N.ar    1  ZINC000194290865   -0.4700
     19 C19        -9.6766   -1.0109   60.1147 C.ar    1  ZINC000194290865    0.2100
     20 C20        -8.2784   -0.8059   60.6383 C.3     1  ZINC000194290865   -0.1100
     21 C21        -9.8580   -1.3203   58.7764 C.ar    1  ZINC000194290865   -0.1800
     22 O22       -13.1320   -1.0045   61.1794 O.3     1  ZINC000194290865   -0.0800
     23 N23       -14.1729   -1.2722   60.2617 N.2     1  ZINC000194290865   -0.2600
     24 C24       -13.6727   -1.4961   59.0849 C.2     1  ZINC000194290865    0.1600
     25 C25       -14.4464   -1.8188   57.8326 C.3     1  ZINC000194290865   -0.0400
     26 C26       -15.1958   -3.1392   58.0220 C.3     1  ZINC000194290865   -0.1500
     27 C27       -15.4499   -0.6989   57.5501 C.3     1  ZINC000194290865   -0.1400
     28 C28       -11.9574   -0.9964   54.5487 C.3     1  ZINC000194290865    0.1200
     29 H29       -13.0182    3.0021   50.4511 H       1  ZINC000194290865    0.0700
     30 H30       -13.7890    1.4080   50.6331 H       1  ZINC000194290865    0.0700
     31 H31       -14.7814    2.8402   50.2692 H       1  ZINC000194290865    0.0800
     32 H32       -14.1994    3.8048   52.4780 H       1  ZINC000194290865    0.0700
     33 H33       -14.9702    2.2107   52.6601 H       1  ZINC000194290865    0.0700
     34 H34        -9.6769   -0.4416   53.3314 H       1  ZINC000194290865    0.0900
     35 H35       -11.3976   -1.5272   51.9139 H       1  ZINC000194290865    0.0500
     36 H36       -11.7858    0.0471   51.1795 H       1  ZINC000194290865    0.0800
     37 H37       -10.1857   -0.6872   50.9169 H       1  ZINC000194290865    0.0600
     38 H38        -9.5248    2.0330   53.3708 H       1  ZINC000194290865    0.0500
     39 H39        -9.0920    1.3919   51.7678 H       1  ZINC000194290865    0.0600
     40 H40       -10.6922    2.1261   52.0304 H       1  ZINC000194290865    0.0800
     41 H41       -10.0676    1.2658   55.1344 H       1  ZINC000194290865    0.0900
     42 H42       -11.5326    2.2763   54.9044 H       1  ZINC000194290865    0.0900
     43 H43       -11.2606    0.8553   57.1887 H       1  ZINC000194290865    0.0900
     44 H44       -12.8541    0.8891   56.3662 H       1  ZINC000194290865    0.0900
     45 H45        -7.8761   -1.7586   60.9825 H       1  ZINC000194290865    0.0900
     46 H46        -7.6467   -0.4109   59.8426 H       1  ZINC000194290865    0.0900
     47 H47        -8.3012   -0.0999   61.4685 H       1  ZINC000194290865    0.0900
     48 H48        -9.0080   -1.4088   58.1159 H       1  ZINC000194290865    0.1600
     49 H49       -13.7572   -1.9094   56.9929 H       1  ZINC000194290865    0.1100
     50 H50       -15.8850   -3.0486   58.8617 H       1  ZINC000194290865    0.0700
     51 H51       -15.7554   -3.3726   57.1163 H       1  ZINC000194290865    0.0700
     52 H52       -14.4809   -3.9371   58.2232 H       1  ZINC000194290865    0.0600
     53 H53       -14.9159    0.2418   57.4151 H       1  ZINC000194290865    0.0600
     54 H54       -16.0094   -0.9323   56.6443 H       1  ZINC000194290865    0.0700
     55 H55       -16.1389   -0.6082   58.3897 H       1  ZINC000194290865    0.0600
     56 H56       -13.0113   -1.2241   54.3892 H       1  ZINC000194290865    0.0800
     57 H57       -11.3364   -1.7908   54.1344 H       1  ZINC000194290865    0.1000
@<TRIPOS>BOND
     1     1     2    1
     2     1    29    1
     3     1    30    1
     4     1    31    1
     5     2     3    1
     6     2    32    1
     7     2    33    1
     8     3     4    1
     9     4     5    2
    10     4     6    1
    11     6    28    1
    12     6     7    1
    13     6    10    1
    14     7     8    1
    15     7     9    1
    16     7    34    1
    17     8    35    1
    18     8    36    1
    19     8    37    1
    20     9    38    1
    21     9    39    1
    22     9    40    1
    23    10    11    1
    24    10    41    1
    25    10    42    1
    26    11    12    1
    27    11    43    1
    28    11    44    1
    29    12    13   am
    30    12    28    1
    31    13    14    2
    32    13    15    1
    33    15    21   ar
    34    15    16   ar
    35    16    24    1
    36    16    17   ar
    37    17    18   ar
    38    17    22    1
    39    18    19   ar
    40    19    20    1
    41    19    21   ar
    42    20    45    1
    43    20    46    1
    44    20    47    1
    45    21    48    1
    46    22    23    1
    47    23    24    2
    48    24    25    1
    49    25    26    1
    50    25    27    1
    51    25    49    1
    52    26    50    1
    53    26    51    1
    54    26    52    1
    55    27    53    1
    56    27    54    1
    57    27    55    1
    58    28    56    1
    59    28    57    1
@<TRIPOS>SUBSTRUCTURE
     1 ZINC000194290865        1 TEMP              0 ****  ****    0 ROOT


##########                                Name:    ZINC000465392830
##########                DOCK_Rotatable_Bonds:                   8
##########                         Heavy_Atoms:                  29
##########                    Molecular_Weight:             419.588
##########                DOCK_Rotatable_Bonds:                   8
##########                       Formal_Charge:           0.0199996
##########                     HBond_Acceptors:                   7
##########                        HBond_Donors:                   0
##########                         Heavy_Atoms:                  29
##########                          Grid_Score:          -28.895521
##########                     Grid_vdw_energy:          -27.995209
##########                      Grid_es_energy:           -0.900312
##########           Internal_energy_repulsive:           35.227283

@<TRIPOS>MOLECULE
ZINC000465392830
 62 64 1 0 0
SMALL
USER_CHARGES


@<TRIPOS>ATOM
      1 C1        -14.9344   -3.5534   58.7281 C.3     1  ZINC000465392830    0.0400
      2 O2        -15.6564   -2.3638   59.1429 O.3     1  ZINC000465392830   -0.3600
      3 C3        -15.7453   -1.3634   58.2524 C.2     1  ZINC000465392830    0.4600
      4 O4        -16.6884   -1.3070   57.4992 O.2     1  ZINC000465392830   -0.4900
      5 C5        -14.6687   -0.3105   58.1920 C.3     1  ZINC000465392830    0.1500
      6 H6        -15.1212    0.6784   58.1197 H       1  ZINC000465392830    0.1100
      7 C7        -13.7836   -0.3919   59.4535 C.3     1  ZINC000465392830   -0.1100
      8 C8        -12.3616   -0.1133   58.8989 C.3     1  ZINC000465392830   -0.0900
      9 H9        -12.1857    0.9574   58.7948 H       1  ZINC000465392830    0.1000
     10 C10       -11.2921   -0.7584   59.7827 C.3     1  ZINC000465392830   -0.0800
     11 C11        -9.9335   -0.6723   59.0845 C.3     1  ZINC000465392830   -0.1200
     12 C12        -8.8641   -1.3173   59.9682 C.3     1  ZINC000465392830   -0.1200
     13 C13        -8.7968   -0.5805   61.3075 C.3     1  ZINC000465392830   -0.1200
     14 C14       -10.1554   -0.6666   62.0057 C.3     1  ZINC000465392830   -0.1200
     15 C15       -11.2248   -0.0215   61.1219 C.3     1  ZINC000465392830   -0.1200
     16 C16       -12.4276   -0.8026   57.5132 C.3     1  ZINC000465392830    0.1000
     17 N17       -13.8006   -0.5493   57.0296 N.am    1  ZINC000465392830   -0.6100
     18 C18       -14.1903   -0.5423   55.7395 C.2     1  ZINC000465392830    0.5400
     19 O19       -15.3495   -0.3248   55.4572 O.2     1  ZINC000465392830   -0.5300
     20 C20       -13.1853   -0.8047   54.6475 C.3     1  ZINC000465392830   -0.1300
     21 C21       -12.5650    0.5192   54.1964 C.3     1  ZINC000465392830   -0.0600
     22 C22       -12.8635    0.7421   52.7362 C.ar    1  ZINC000465392830   -0.2000
     23 C23       -13.8378    1.6464   52.3427 C.ar    1  ZINC000465392830    0.2000
     24 C24       -14.6164    2.4244   53.3720 C.3     1  ZINC000465392830   -0.1100
     25 N25       -14.0754    1.8185   51.0531 N.ar    1  ZINC000465392830   -0.5000
     26 C26       -13.3942    1.1380   50.1420 C.ar    1  ZINC000465392830    0.3000
     27 S27       -13.7432    1.3986   48.4347 S.3     1  ZINC000465392830    0.0000
     28 C28       -13.4709    3.1847   48.3272 C.3     1  ZINC000465392830   -0.1400
     29 N29       -12.4561    0.2666   50.4851 N.ar    1  ZINC000465392830   -0.5300
     30 C30       -12.1660    0.0515   51.7574 C.ar    1  ZINC000465392830    0.2000
     31 C31       -11.0981   -0.9411   52.1389 C.3     1  ZINC000465392830   -0.1100
     32 H32       -15.4174   -3.9841   57.8510 H       1  ZINC000465392830    0.0600
     33 H33       -13.9062   -3.2873   58.4828 H       1  ZINC000465392830    0.0600
     34 H34       -14.9377   -4.2816   59.5391 H       1  ZINC000465392830    0.1000
     35 H35       -14.0719    0.3711   60.1766 H       1  ZINC000465392830    0.1000
     36 H36       -13.8363   -1.3857   59.8981 H       1  ZINC000465392830    0.0800
     37 H37       -11.5462   -1.8041   59.9558 H       1  ZINC000465392830    0.0800
     38 H38        -9.9815   -1.1972   58.1304 H       1  ZINC000465392830    0.0600
     39 H39        -9.6795    0.3735   58.9114 H       1  ZINC000465392830    0.0700
     40 H40        -9.1181   -2.3632   60.1413 H       1  ZINC000465392830    0.0600
     41 H41        -7.8961   -1.2560   59.4707 H       1  ZINC000465392830    0.0600
     42 H42        -8.0349   -1.0401   61.9371 H       1  ZINC000465392830    0.0600
     43 H43        -8.5428    0.4653   61.1344 H       1  ZINC000465392830    0.0600
     44 H44       -10.4094   -1.7123   62.1788 H       1  ZINC000465392830    0.0600
     45 H45       -10.1075   -0.1416   62.9598 H       1  ZINC000465392830    0.0600
     46 H46       -10.9709    1.0243   60.9489 H       1  ZINC000465392830    0.0700
     47 H47       -12.1928   -0.0828   61.6194 H       1  ZINC000465392830    0.0600
     48 H48       -11.6998   -0.3590   56.8338 H       1  ZINC000465392830    0.0900
     49 H49       -12.2510   -1.8735   57.6134 H       1  ZINC000465392830    0.0800
     50 H50       -12.4025   -1.4629   55.0246 H       1  ZINC000465392830    0.1000
     51 H51       -13.6831   -1.2795   53.8020 H       1  ZINC000465392830    0.1000
     52 H52       -12.9864    1.3361   54.7823 H       1  ZINC000465392830    0.0900
     53 H53       -11.4858    0.4842   54.3454 H       1  ZINC000465392830    0.0900
     54 H54       -14.0988    3.3586   53.5894 H       1  ZINC000465392830    0.0900
     55 H55       -15.6123    2.6422   52.9860 H       1  ZINC000465392830    0.0900
     56 H56       -14.7016    1.8351   54.2850 H       1  ZINC000465392830    0.0900
     57 H57       -14.1555    3.6979   49.0026 H       1  ZINC000465392830    0.0900
     58 H58       -12.4431    3.4132   48.6091 H       1  ZINC000465392830    0.0900
     59 H59       -13.6503    3.5187   47.3052 H       1  ZINC000465392830    0.1100
     60 H60       -10.1348   -0.4343   52.1960 H       1  ZINC000465392830    0.0900
     61 H61       -11.3373   -1.3772   53.1087 H       1  ZINC000465392830    0.0900
     62 H62       -11.0500   -1.7295   51.3878 H       1  ZINC000465392830    0.0800
@<TRIPOS>BOND
     1     1     2    1
     2     1    32    1
     3     1    33    1
     4     1    34    1
     5     2     3    1
     6     3     4    2
     7     3     5    1
     8     5     6    1
     9     5    17    1
    10     5     7    1
    11     7     8    1
    12     7    35    1
    13     7    36    1
    14     8     9    1
    15     8    10    1
    16     8    16    1
    17    10    15    1
    18    10    11    1
    19    10    37    1
    20    11    12    1
    21    11    38    1
    22    11    39    1
    23    12    13    1
    24    12    40    1
    25    12    41    1
    26    13    14    1
    27    13    42    1
    28    13    43    1
    29    14    15    1
    30    14    44    1
    31    14    45    1
    32    15    46    1
    33    15    47    1
    34    16    17    1
    35    16    48    1
    36    16    49    1
    37    17    18   am
    38    18    19    2
    39    18    20    1
    40    20    21    1
    41    20    50    1
    42    20    51    1
    43    21    22    1
    44    21    52    1
    45    21    53    1
    46    22    30   ar
    47    22    23   ar
    48    23    24    1
    49    23    25   ar
    50    24    54    1
    51    24    55    1
    52    24    56    1
    53    25    26   ar
    54    26    27    1
    55    26    29   ar
    56    27    28    1
    57    28    57    1
    58    28    58    1
    59    28    59    1
    60    29    30   ar
    61    30    31    1
    62    31    60    1
    63    31    61    1
    64    31    62    1
@<TRIPOS>SUBSTRUCTURE
     1 ZINC000465392830        1 TEMP              0 ****  ****    0 ROOT


##########                                Name:    ZINC001708427409
##########                DOCK_Rotatable_Bonds:                   6
##########                         Heavy_Atoms:                  24
##########                    Molecular_Weight:             334.505
##########                DOCK_Rotatable_Bonds:                   6
##########                       Formal_Charge:          -0.0200006
##########                     HBond_Acceptors:                   5
##########                        HBond_Donors:                   1
##########                         Heavy_Atoms:                  24
##########                          Grid_Score:          -28.890564
##########                     Grid_vdw_energy:          -27.864437
##########                      Grid_es_energy:           -1.026127
##########           Internal_energy_repulsive:           23.767422

@<TRIPOS>MOLECULE
ZINC001708427409
 58 60 1 0 0
SMALL
USER_CHARGES


@<TRIPOS>ATOM
      1 C1         -6.0846    2.5116   53.2494 C.3     1  ZINC001708427409   -0.1500
      2 C2         -5.5927    2.4032   51.8048 C.3     1  ZINC001708427409   -0.1200
      3 C3         -4.4689    3.4149   51.5714 C.3     1  ZINC001708427409    0.0000
      4 H4         -3.7818    3.3962   52.4174 H       1  ZINC001708427409    0.0800
      5 C5         -5.0658    4.8166   51.4301 C.3     1  ZINC001708427409   -0.1400
      6 C6         -3.7241    3.0567   50.3113 C.2     1  ZINC001708427409    0.1800
      7 N7         -4.2448    2.8823   49.1296 N.2     1  ZINC001708427409   -0.2800
      8 N8         -3.3250    2.5858   48.2822 N.2     1  ZINC001708427409   -0.3200
      9 C9         -2.1587    2.5550   48.8827 C.2     1  ZINC001708427409    0.3600
     10 N10        -0.9364    2.2719   48.2941 N.3     1  ZINC001708427409   -0.4200
     11 C11        -0.7590    3.0451   47.0337 C.3     1  ZINC001708427409    0.0400
     12 C12         0.2967    2.2535   46.2312 C.3     1  ZINC001708427409   -0.0900
     13 H13         1.2856    2.6893   46.3733 H       1  ZINC001708427409    0.0900
     14 C14        -0.0675    2.2372   44.7452 C.3     1  ZINC001708427409   -0.1500
     15 C15         0.2516    0.8162   46.8155 C.3     1  ZINC001708427409   -0.0800
     16 H16         0.0439    0.0820   46.0373 H       1  ZINC001708427409    0.0900
     17 C17         1.6088    0.5533   47.4687 C.3     1  ZINC001708427409   -0.1100
     18 C18         1.5322   -0.7067   48.3304 C.3     1  ZINC001708427409   -0.1200
     19 C19         0.5713   -0.4438   49.4879 C.3     1  ZINC001708427409   -0.1100
     20 C20        -0.8143   -0.1166   48.9695 C.3     1  ZINC001708427409   -0.1000
     21 C21        -0.8806    0.8662   47.8382 C.3     1  ZINC001708427409    0.1000
     22 H22        -1.8115    0.6772   47.3035 H       1  ZINC001708427409    0.0600
     23 N23        -2.3759    2.8602   50.1947 N.pl3   1  ZINC001708427409   -0.4700
     24 C24        -1.3739    2.9492   51.2597 C.3     1  ZINC001708427409    0.0800
     25 C25        -0.8889    4.3950   51.3842 C.3     1  ZINC001708427409    0.1200
     26 C26         0.2286    4.4700   52.4266 C.3     1  ZINC001708427409   -0.1800
     27 C27        -0.3575    4.8729   50.0315 C.3     1  ZINC001708427409   -0.1500
     28 O28        -1.9761    5.2288   51.7905 O.3     1  ZINC001708427409   -0.5400
     29 H29        -6.4591    3.5189   53.4312 H       1  ZINC001708427409    0.0600
     30 H30        -6.8853    1.7908   53.4157 H       1  ZINC001708427409    0.0600
     31 H31        -5.2600    2.3021   53.9307 H       1  ZINC001708427409    0.0500
     32 H32        -5.2183    1.3959   51.6229 H       1  ZINC001708427409    0.0700
     33 H33        -6.4174    2.6128   51.1235 H       1  ZINC001708427409    0.0800
     34 H34        -5.6044    5.0758   52.3415 H       1  ZINC001708427409    0.0700
     35 H35        -4.2651    5.5373   51.2639 H       1  ZINC001708427409    0.0500
     36 H36        -5.7528    4.8354   50.5841 H       1  ZINC001708427409    0.0700
     37 H37        -1.6980    3.0926   46.4821 H       1  ZINC001708427409    0.0600
     38 H38        -0.3951    4.0491   47.2524 H       1  ZINC001708427409    0.0800
     39 H39        -0.0814    3.2580   44.3633 H       1  ZINC001708427409    0.0600
     40 H40         0.6717    1.6539   44.1963 H       1  ZINC001708427409    0.0600
     41 H41        -1.0524    1.7881   44.6175 H       1  ZINC001708427409    0.0600
     42 H42         2.3636    0.4173   46.6941 H       1  ZINC001708427409    0.0600
     43 H43         1.8812    1.4038   48.0936 H       1  ZINC001708427409    0.0700
     44 H44         1.1639   -1.5388   47.7305 H       1  ZINC001708427409    0.0600
     45 H45         2.5215   -0.9432   48.7222 H       1  ZINC001708427409    0.0600
     46 H46         0.5184   -1.3307   50.1191 H       1  ZINC001708427409    0.0600
     47 H47         0.9411    0.3947   50.0781 H       1  ZINC001708427409    0.0600
     48 H48        -1.2795   -1.0425   48.6311 H       1  ZINC001708427409    0.0600
     49 H49        -1.4053    0.2735   49.7981 H       1  ZINC001708427409    0.0700
     50 H50        -1.8175    2.6322   52.2035 H       1  ZINC001708427409    0.0900
     51 H51        -0.5300    2.3023   51.0196 H       1  ZINC001708427409    0.1000
     52 H52         1.0578    3.8341   52.1166 H       1  ZINC001708427409    0.0700
     53 H53         0.5741    5.5001   52.5153 H       1  ZINC001708427409    0.0700
     54 H54        -0.1500    4.1296   53.3903 H       1  ZINC001708427409    0.0600
     55 H55        -1.1279    4.7420   49.2716 H       1  ZINC001708427409    0.0700
     56 H56        -0.0887    5.9272   50.0985 H       1  ZINC001708427409    0.0700
     57 H57         0.5229    4.2901   49.7604 H       1  ZINC001708427409    0.0700
     58 H58        -2.3631    4.9833   52.6420 H       1  ZINC001708427409    0.3800
@<TRIPOS>BOND
     1     1     2    1
     2     1    29    1
     3     1    30    1
     4     1    31    1
     5     2     3    1
     6     2    32    1
     7     2    33    1
     8     3     4    1
     9     3     5    1
    10     3     6    1
    11     5    34    1
    12     5    35    1
    13     5    36    1
    14     6    23    1
    15     6     7    2
    16     7     8    1
    17     8     9    2
    18     9    10    1
    19     9    23    1
    20    10    21    1
    21    10    11    1
    22    11    12    1
    23    11    37    1
    24    11    38    1
    25    12    13    1
    26    12    14    1
    27    12    15    1
    28    14    39    1
    29    14    40    1
    30    14    41    1
    31    15    16    1
    32    15    21    1
    33    15    17    1
    34    17    18    1
    35    17    42    1
    36    17    43    1
    37    18    19    1
    38    18    44    1
    39    18    45    1
    40    19    20    1
    41    19    46    1
    42    19    47    1
    43    20    21    1
    44    20    48    1
    45    20    49    1
    46    21    22    1
    47    23    24    1
    48    24    25    1
    49    24    50    1
    50    24    51    1
    51    25    26    1
    52    25    27    1
    53    25    28    1
    54    26    52    1
    55    26    53    1
    56    26    54    1
    57    27    55    1
    58    27    56    1
    59    27    57    1
    60    28    58    1
@<TRIPOS>SUBSTRUCTURE
     1 ZINC001708427409        1 TEMP              0 ****  ****    0 ROOT


##########                                Name:    ZINC000533037883
##########                DOCK_Rotatable_Bonds:                   7
##########                         Heavy_Atoms:                  27
##########                    Molecular_Weight:             368.479
##########                DOCK_Rotatable_Bonds:                   7
##########                       Formal_Charge:          0.00999947
##########                     HBond_Acceptors:                   6
##########                        HBond_Donors:                   1
##########                         Heavy_Atoms:                  27
##########                          Grid_Score:          -28.854225
##########                     Grid_vdw_energy:          -27.758709
##########                      Grid_es_energy:           -1.095516
##########           Internal_energy_repulsive:           13.237402

@<TRIPOS>MOLECULE
ZINC000533037883
 55 58 1 0 0
SMALL
USER_CHARGES


@<TRIPOS>ATOM
      1 O1        -13.3707   -1.4808   61.1123 O.2     1  ZINC000533037883   -0.5900
      2 C2        -12.5993   -1.8103   60.2321 C.2     1  ZINC000533037883    0.7100
      3 N3        -13.0507   -2.4920   59.1607 N.am    1  ZINC000533037883   -0.7500
      4 C4        -14.4699   -2.8413   59.0595 C.3     1  ZINC000533037883    0.1400
      5 C5        -14.7786   -3.3140   57.6375 C.3     1  ZINC000533037883   -0.0500
      6 C6        -14.4579   -2.2118   56.6611 C.2     1  ZINC000533037883   -0.2300
      7 C7        -13.3663   -2.1469   55.8642 C.2     1  ZINC000533037883    0.0600
      8 N8        -13.4518   -1.0075   55.1410 N.pl3   1  ZINC000533037883   -0.3200
      9 C9        -12.5216   -0.5606   54.1922 C.ar    1  ZINC000533037883    0.1600
     10 C10       -11.3619   -1.2876   53.9590 C.ar    1  ZINC000533037883   -0.1400
     11 C11       -10.4474   -0.8448   53.0236 C.ar    1  ZINC000533037883   -0.0900
     12 C12       -10.6854    0.3216   52.3200 C.ar    1  ZINC000533037883   -0.1300
     13 C13       -11.8395    1.0477   52.5501 C.ar    1  ZINC000533037883   -0.0900
     14 C14       -12.7607    0.6067   53.4798 C.ar    1  ZINC000533037883   -0.1200
     15 N15       -14.6350   -0.3530   55.5075 N.2     1  ZINC000533037883   -0.2900
     16 C16       -15.2395   -1.0778   56.4142 C.2     1  ZINC000533037883    0.0700
     17 N17       -11.2937   -1.4890   60.3253 N.am    1  ZINC000533037883   -0.6300
     18 C18       -10.3505   -1.8749   59.2669 C.3     1  ZINC000533037883    0.1100
     19 C19        -9.6007   -0.6251   58.7951 C.3     1  ZINC000533037883   -0.1400
     20 C20        -8.9489    0.0588   59.9991 C.3     1  ZINC000533037883   -0.1100
     21 C21       -10.0318    0.4908   60.9905 C.3     1  ZINC000533037883   -0.0900
     22 H22       -10.7285    1.1678   60.4962 H       1  ZINC000533037883    0.0800
     23 C23        -9.3819    1.2042   62.1778 C.3     1  ZINC000533037883   -0.1200
     24 H24        -8.6490    0.5589   62.6620 H       1  ZINC000533037883    0.0900
     25 C25        -8.7311    2.5413   61.7303 C.3     1  ZINC000533037883   -0.1500
     26 C26        -8.8174    3.3634   63.0409 C.3     1  ZINC000533037883    0.0500
     27 O27       -10.0656    2.9826   63.6411 O.3     1  ZINC000533037883   -0.3900
     28 C28       -10.4505    1.6758   63.1872 C.3     1  ZINC000533037883    0.0500
     29 C29       -10.7876   -0.7411   61.4842 C.3     1  ZINC000533037883    0.1300
     30 H30       -12.4360   -2.7515   58.4566 H       1  ZINC000533037883    0.4000
     31 H31       -14.6989   -3.6394   59.7655 H       1  ZINC000533037883    0.0700
     32 H32       -15.0769   -1.9659   59.2912 H       1  ZINC000533037883    0.0700
     33 H33       -14.1738   -4.1910   57.4068 H       1  ZINC000533037883    0.0800
     34 H34       -15.8351   -3.5709   57.5613 H       1  ZINC000533037883    0.0800
     35 H35       -12.5695   -2.8744   55.8149 H       1  ZINC000533037883    0.1800
     36 H36       -11.1751   -2.1983   54.5087 H       1  ZINC000533037883    0.1300
     37 H37        -9.5451   -1.4100   52.8417 H       1  ZINC000533037883    0.1300
     38 H38        -9.9684    0.6661   51.5896 H       1  ZINC000533037883    0.1300
     39 H39       -12.0227    1.9584   51.9991 H       1  ZINC000533037883    0.1300
     40 H40       -13.6620    1.1742   53.6589 H       1  ZINC000533037883    0.1400
     41 H41       -16.1772   -0.8386   56.8937 H       1  ZINC000533037883    0.1900
     42 H42        -9.6390   -2.6018   59.6586 H       1  ZINC000533037883    0.0700
     43 H43       -10.8977   -2.3102   58.4307 H       1  ZINC000533037883    0.0800
     44 H44        -8.8307   -0.9116   58.0787 H       1  ZINC000533037883    0.0800
     45 H45       -10.3013    0.0624   58.3215 H       1  ZINC000533037883    0.0700
     46 H46        -8.2668   -0.6375   60.4870 H       1  ZINC000533037883    0.0700
     47 H47        -8.3941    0.9347   59.6628 H       1  ZINC000533037883    0.0700
     48 H48        -7.6947    2.3919   61.4278 H       1  ZINC000533037883    0.0800
     49 H49        -9.3072    3.0112   60.9332 H       1  ZINC000533037883    0.0800
     50 H50        -7.9876    3.1111   63.7010 H       1  ZINC000533037883    0.0600
     51 H51        -8.8144    4.4306   62.8190 H       1  ZINC000533037883    0.0900
     52 H52       -11.4224    1.7263   62.6963 H       1  ZINC000533037883    0.0700
     53 H53       -10.4973    0.9897   64.0328 H       1  ZINC000533037883    0.0700
     54 H54       -11.6221   -0.4301   62.1128 H       1  ZINC000533037883    0.1000
     55 H55       -10.1137   -1.3782   62.0569 H       1  ZINC000533037883    0.0700
@<TRIPOS>BOND
     1     1     2    2
     2     2     3   am
     3     2    17   am
     4     3     4    1
     5     3    30    1
     6     4     5    1
     7     4    31    1
     8     4    32    1
     9     5     6    1
    10     5    33    1
    11     5    34    1
    12     6    16    1
    13     6     7    2
    14     7     8    1
    15     7    35    1
    16     8     9    1
    17     8    15    1
    18     9    14   ar
    19     9    10   ar
    20    10    11   ar
    21    10    36    1
    22    11    12   ar
    23    11    37    1
    24    12    13   ar
    25    12    38    1
    26    13    14   ar
    27    13    39    1
    28    14    40    1
    29    15    16    2
    30    16    41    1
    31    17    29    1
    32    17    18    1
    33    18    19    1
    34    18    42    1
    35    18    43    1
    36    19    20    1
    37    19    44    1
    38    19    45    1
    39    20    21    1
    40    20    46    1
    41    20    47    1
    42    21    22    1
    43    21    23    1
    44    21    29    1
    45    23    24    1
    46    23    28    1
    47    23    25    1
    48    25    26    1
    49    25    48    1
    50    25    49    1
    51    26    27    1
    52    26    50    1
    53    26    51    1
    54    27    28    1
    55    28    52    1
    56    28    53    1
    57    29    54    1
    58    29    55    1
@<TRIPOS>SUBSTRUCTURE
     1 ZINC000533037883        1 TEMP              0 ****  ****    0 ROOT


##########                                Name:    ZINC001122903793
##########                DOCK_Rotatable_Bonds:                   4
##########                         Heavy_Atoms:                  25
##########                    Molecular_Weight:             399.968
##########                DOCK_Rotatable_Bonds:                   4
##########                       Formal_Charge:           0.0100003
##########                     HBond_Acceptors:                   9
##########                        HBond_Donors:                   0
##########                         Heavy_Atoms:                  25
##########                          Grid_Score:          -28.841904
##########                     Grid_vdw_energy:          -28.095592
##########                      Grid_es_energy:           -0.746311
##########           Internal_energy_repulsive:           17.557022

@<TRIPOS>MOLECULE
ZINC001122903793
 47 50 1 0 0
SMALL
USER_CHARGES


@<TRIPOS>ATOM
      1 C1          0.8347    2.1307   44.4094 C.3     1  ZINC001122903793   -0.1400
      2 C2          1.0633    1.9050   45.9054 C.3     1  ZINC001122903793   -0.0400
      3 H3          1.5377    2.7849   46.3401 H       1  ZINC001122903793    0.1000
      4 S4          2.1307    0.4524   46.1483 S.3     1  ZINC001122903793   -0.2500
      5 C5          2.0371    0.2145   47.9492 C.3     1  ZINC001122903793   -0.0800
      6 C6          0.5610    0.1860   48.3600 C.3     1  ZINC001122903793    0.0700
      7 N7         -0.0704    1.4673   48.0365 N.3     1  ZINC001122903793   -0.4800
      8 C8         -1.2573    1.6258   48.7332 C.2     1  ZINC001122903793    0.3700
      9 N9         -2.2747    0.7963   48.7357 N.2     1  ZINC001122903793   -0.2900
     10 N10        -3.2127    1.2485   49.4886 N.2     1  ZINC001122903793   -0.2400
     11 C11        -2.8507    2.3978   50.0146 C.2     1  ZINC001122903793    0.2600
     12 C12        -3.6467    3.2311   50.9306 C.2     1  ZINC001122903793   -0.1600
     13 C13        -4.9759    3.4726   50.8385 C.2     1  ZINC001122903793    0.1600
     14 Cl14       -5.9705    2.8102   49.5792 Cl      1  ZINC001122903793    0.0300
     15 N15        -5.4476    4.2524   51.7855 N.2     1  ZINC001122903793   -0.4600
     16 C16        -4.6102    4.6848   52.6689 C.2     1  ZINC001122903793    0.0300
     17 S17        -3.0416    4.0862   52.3474 S.3     1  ZINC001122903793    0.2200
     18 N18        -1.5839    2.6717   49.5498 N.pl3   1  ZINC001122903793   -0.4600
     19 C19        -0.7610    3.8434   49.8601 C.3     1  ZINC001122903793    0.1100
     20 C20         0.0087    3.5965   51.1590 C.3     1  ZINC001122903793    0.0700
     21 H21        -0.6533    3.1768   51.9164 H       1  ZINC001122903793    0.0800
     22 C22         1.2045    2.6448   50.9029 C.3     1  ZINC001122903793   -0.1500
     23 C23         2.1512    3.0407   52.0686 C.3     1  ZINC001122903793   -0.1500
     24 C24         1.8777    4.5533   52.2137 C.3     1  ZINC001122903793    0.0500
     25 O25         0.5948    4.8198   51.6317 O.3     1  ZINC001122903793   -0.3700
     26 C26        -0.2793    1.6486   46.5984 C.3     1  ZINC001122903793    0.1000
     27 H27        -0.7309    0.7483   46.1816 H       1  ZINC001122903793    0.0800
     28 C28        -1.2118    2.8392   46.3662 C.3     1  ZINC001122903793   -0.1500
     29 H29         0.1893    2.9974   44.2671 H       1  ZINC001122903793    0.0800
     30 H30         1.7919    2.3058   43.9180 H       1  ZINC001122903793    0.0700
     31 H31         0.3604    1.2495   43.9774 H       1  ZINC001122903793    0.0700
     32 H32         2.5107   -0.7294   48.2190 H       1  ZINC001122903793    0.1200
     33 H33         2.5419    1.0381   48.4540 H       1  ZINC001122903793    0.0900
     34 H34         0.0513   -0.6146   47.8238 H       1  ZINC001122903793    0.0700
     35 H35         0.4870    0.0062   49.4325 H       1  ZINC001122903793    0.0900
     36 H36        -4.8659    5.3300   53.4963 H       1  ZINC001122903793    0.2100
     37 H37        -0.0559    4.0177   49.0474 H       1  ZINC001122903793    0.1200
     38 H38        -1.4024    4.7168   49.9781 H       1  ZINC001122903793    0.1000
     39 H39         0.8998    1.6013   50.9813 H       1  ZINC001122903793    0.0900
     40 H40         1.6664    2.8458   49.9362 H       1  ZINC001122903793    0.0800
     41 H41         1.8850    2.5090   52.9821 H       1  ZINC001122903793    0.0800
     42 H42         3.1923    2.8586   51.8018 H       1  ZINC001122903793    0.0900
     43 H43         1.8679    4.8277   53.2685 H       1  ZINC001122903793    0.0700
     44 H44         2.6474    5.1200   51.6900 H       1  ZINC001122903793    0.0700
     45 H45        -0.7624    3.7397   46.7851 H       1  ZINC001122903793    0.0600
     46 H46        -1.3679    2.9752   45.2961 H       1  ZINC001122903793    0.0800
     47 H47        -2.1691    2.6511   46.8522 H       1  ZINC001122903793    0.0600
@<TRIPOS>BOND
     1     1     2    1
     2     1    29    1
     3     1    30    1
     4     1    31    1
     5     2     3    1
     6     2    26    1
     7     2     4    1
     8     4     5    1
     9     5     6    1
    10     5    32    1
    11     5    33    1
    12     6     7    1
    13     6    34    1
    14     6    35    1
    15     7     8    1
    16     7    26    1
    17     8    18    1
    18     8     9    2
    19     9    10    1
    20    10    11    2
    21    11    12    1
    22    11    18    1
    23    12    17    1
    24    12    13    2
    25    13    14    1
    26    13    15    1
    27    15    16    2
    28    16    17    1
    29    16    36    1
    30    18    19    1
    31    19    20    1
    32    19    37    1
    33    19    38    1
    34    20    21    1
    35    20    25    1
    36    20    22    1
    37    22    23    1
    38    22    39    1
    39    22    40    1
    40    23    24    1
    41    23    41    1
    42    23    42    1
    43    24    25    1
    44    24    43    1
    45    24    44    1
    46    26    27    1
    47    26    28    1
    48    28    45    1
    49    28    46    1
    50    28    47    1
@<TRIPOS>SUBSTRUCTURE
     1 ZINC001122903793        1 TEMP              0 ****  ****    0 ROOT


##########                                Name:    ZINC000854500114
##########                DOCK_Rotatable_Bonds:                   7
##########                         Heavy_Atoms:                  24
##########                    Molecular_Weight:             399.288
##########                DOCK_Rotatable_Bonds:                   7
##########                       Formal_Charge:          -0.0399992
##########                     HBond_Acceptors:                   7
##########                        HBond_Donors:                   2
##########                         Heavy_Atoms:                  24
##########                          Grid_Score:          -28.802057
##########                     Grid_vdw_energy:          -28.690094
##########                      Grid_es_energy:           -0.111964
##########           Internal_energy_repulsive:           76.785576

@<TRIPOS>MOLECULE
ZINC000854500114
 47 49 1 0 0
SMALL
USER_CHARGES


@<TRIPOS>ATOM
      1 O1          1.5670    2.7125   45.2564 O.2     1  ZINC000854500114   -0.5800
      2 C2          1.1069    1.9621   44.4186 C.2     1  ZINC000854500114    0.6600
      3 N3          1.8204    1.6669   43.3138 N.am    1  ZINC000854500114   -0.7100
      4 C4          3.1480    2.2554   43.1202 C.3     1  ZINC000854500114    0.1600
      5 C5          4.0140    1.3284   42.2425 C.3     1  ZINC000854500114   -0.1400
      6 C6          3.8503    1.8982   40.8116 C.3     1  ZINC000854500114   -0.1300
      7 C7          3.8250    3.4279   41.0537 C.3     1  ZINC000854500114   -0.1300
      8 C8          3.0278    3.5902   42.3644 C.3     1  ZINC000854500114   -0.1300
      9 O9         -0.1131    1.4214   44.5964 O.3     1  ZINC000854500114   -0.3600
     10 C10        -0.8024    1.7422   45.8334 C.3     1  ZINC000854500114    0.1000
     11 C11        -0.1918    0.9357   46.9814 C.3     1  ZINC000854500114    0.1500
     12 H12         0.8365    1.2569   47.1471 H       1  ZINC000854500114    0.0900
     13 C13        -0.2139   -0.5553   46.6301 C.3     1  ZINC000854500114   -0.1300
     14 C14         0.2681   -1.3663   47.8351 C.3     1  ZINC000854500114   -0.1200
     15 C15        -0.6746   -1.1348   49.0182 C.3     1  ZINC000854500114   -0.1400
     16 C16        -0.6577    0.3496   49.3965 C.3     1  ZINC000854500114    0.0900
     17 N17        -0.9773    1.1480   48.2047 N.am    1  ZINC000854500114   -0.6100
     18 C18        -1.9751    2.0536   48.2322 C.2     1  ZINC000854500114    0.5900
     19 O19        -2.2298    2.7082   47.2392 O.2     1  ZINC000854500114   -0.4900
     20 C20        -2.7564    2.2505   49.4637 C.2     1  ZINC000854500114   -0.0300
     21 C21        -4.0315    1.7787   49.7226 C.2     1  ZINC000854500114   -0.1200
     22 C22        -4.3352    2.2222   51.0126 C.2     1  ZINC000854500114    0.0200
     23 Br23       -5.9460    1.9018   51.9500 Br      1  ZINC000854500114    0.0400
     24 N24        -3.3061    2.8985   51.4569 N.2     1  ZINC000854500114   -0.2400
     25 N25        -2.3661    2.9304   50.5823 N.pl3   1  ZINC000854500114   -0.3700
     26 H26         1.4548    1.0649   42.6469 H       1  ZINC000854500114    0.4000
     27 H27         3.6297    2.4146   44.0850 H       1  ZINC000854500114    0.0900
     28 H28         5.0576    1.3735   42.5541 H       1  ZINC000854500114    0.0800
     29 H29         3.6448    0.3038   42.2897 H       1  ZINC000854500114    0.0700
     30 H30         4.6984    1.6202   40.1857 H       1  ZINC000854500114    0.0700
     31 H31         2.9139    1.5619   40.3667 H       1  ZINC000854500114    0.0700
     32 H32         4.8380    3.8120   41.1732 H       1  ZINC000854500114    0.0700
     33 H33         3.3177    3.9355   40.2333 H       1  ZINC000854500114    0.0700
     34 H34         1.9817    3.8003   42.1416 H       1  ZINC000854500114    0.0700
     35 H35         3.4520    4.3972   42.9619 H       1  ZINC000854500114    0.0800
     36 H36        -0.6983    2.8070   46.0418 H       1  ZINC000854500114    0.1000
     37 H37        -1.8589    1.4927   45.7359 H       1  ZINC000854500114    0.0700
     38 H38        -1.2304   -0.8537   46.3740 H       1  ZINC000854500114    0.0800
     39 H39         0.4445   -0.7388   45.7810 H       1  ZINC000854500114    0.0900
     40 H40         0.2769   -2.4258   47.5796 H       1  ZINC000854500114    0.0800
     41 H41         1.2755   -1.0501   48.1062 H       1  ZINC000854500114    0.0700
     42 H42        -1.6868   -1.4277   48.7395 H       1  ZINC000854500114    0.0700
     43 H43        -0.3440   -1.7308   49.8689 H       1  ZINC000854500114    0.0800
     44 H44        -1.4001    0.5375   50.1722 H       1  ZINC000854500114    0.0800
     45 H45         0.3324    0.6224   49.7616 H       1  ZINC000854500114    0.0800
     46 H46        -4.6585    1.1926   49.0671 H       1  ZINC000854500114    0.1700
     47 H47        -1.5115    3.3749   50.6963 H       1  ZINC000854500114    0.4500
@<TRIPOS>BOND
     1     1     2    2
     2     2     3   am
     3     2     9    1
     4     3     4    1
     5     3    26    1
     6     4     8    1
     7     4     5    1
     8     4    27    1
     9     5     6    1
    10     5    28    1
    11     5    29    1
    12     6     7    1
    13     6    30    1
    14     6    31    1
    15     7     8    1
    16     7    32    1
    17     7    33    1
    18     8    34    1
    19     8    35    1
    20     9    10    1
    21    10    11    1
    22    10    36    1
    23    10    37    1
    24    11    12    1
    25    11    17    1
    26    11    13    1
    27    13    14    1
    28    13    38    1
    29    13    39    1
    30    14    15    1
    31    14    40    1
    32    14    41    1
    33    15    16    1
    34    15    42    1
    35    15    43    1
    36    16    17    1
    37    16    44    1
    38    16    45    1
    39    17    18   am
    40    18    19    2
    41    18    20    1
    42    20    25    1
    43    20    21    2
    44    21    22    1
    45    21    46    1
    46    22    23    1
    47    22    24    2
    48    24    25    1
    49    25    47    1
@<TRIPOS>SUBSTRUCTURE
     1 ZINC000854500114        1 TEMP              0 ****  ****    0 ROOT


##########                                Name:    ZINC000050607728
##########                DOCK_Rotatable_Bonds:                  10
##########                         Heavy_Atoms:                  31
##########                    Molecular_Weight:             416.476
##########                DOCK_Rotatable_Bonds:                  10
##########                       Formal_Charge:          -0.0199995
##########                     HBond_Acceptors:                   6
##########                        HBond_Donors:                   1
##########                         Heavy_Atoms:                  31
##########                          Grid_Score:          -28.795912
##########                     Grid_vdw_energy:          -28.278215
##########                      Grid_es_energy:           -0.517697
##########           Internal_energy_repulsive:           15.379180

@<TRIPOS>MOLECULE
ZINC000050607728
 55 57 1 0 0
SMALL
USER_CHARGES


@<TRIPOS>ATOM
      1 C1         -7.9626    2.3529   51.9073 C.3     1  ZINC000050607728    0.0800
      2 N2         -7.6706    0.9175   51.8864 N.am    1  ZINC000050607728   -0.6200
      3 C3         -8.7492   -0.0524   52.0911 C.3     1  ZINC000050607728    0.0700
      4 C4         -6.4097    0.4892   51.6788 C.2     1  ZINC000050607728    0.5600
      5 O5         -6.1674   -0.7018   51.6615 O.2     1  ZINC000050607728   -0.5300
      6 C6         -5.3211    1.4680   51.4722 C.ar    1  ZINC000050607728   -0.1400
      7 C7         -4.8240    2.2014   52.5506 C.ar    1  ZINC000050607728   -0.0800
      8 C8         -3.8077    3.1129   52.3511 C.ar    1  ZINC000050607728   -0.1300
      9 C9         -3.2818    3.3011   51.0855 C.ar    1  ZINC000050607728   -0.0700
     10 C10        -3.7705    2.5776   50.0119 C.ar    1  ZINC000050607728   -0.1100
     11 C11        -3.1919    2.7895   48.6365 C.3     1  ZINC000050607728    0.1100
     12 O12        -2.6857    1.5285   48.1248 O.3     1  ZINC000050607728   -0.3400
     13 C13        -1.7580    0.8995   48.8634 C.2     1  ZINC000050607728    0.4700
     14 O14        -2.0927    0.2322   49.8135 O.2     1  ZINC000050607728   -0.5000
     15 C15        -0.2991    1.0257   48.5076 C.3     1  ZINC000050607728    0.2000
     16 H16         0.1295    0.0325   48.3736 H       1  ZINC000050607728    0.1400
     17 N17        -0.1639    1.7878   47.2637 N.am    1  ZINC000050607728   -0.7100
     18 C18         0.7840    1.4510   46.3668 C.2     1  ZINC000050607728    0.5700
     19 O19         1.5257    0.5141   46.5891 O.2     1  ZINC000050607728   -0.5200
     20 C20         0.9216    2.2212   45.1123 C.ar    1  ZINC000050607728   -0.1400
     21 C21        -0.1175    3.0462   44.6788 C.ar    1  ZINC000050607728   -0.0800
     22 C22         0.0174    3.7625   43.5076 C.ar    1  ZINC000050607728   -0.1300
     23 C23         1.1794    3.6643   42.7629 C.ar    1  ZINC000050607728   -0.0900
     24 C24         2.2130    2.8480   43.1868 C.ar    1  ZINC000050607728   -0.1300
     25 C25         2.0933    2.1311   44.3594 C.ar    1  ZINC000050607728   -0.0600
     26 C26         0.4284    1.7411   49.6167 C.ar    1  ZINC000050607728   -0.1000
     27 C27         1.1487    1.0188   50.5494 C.ar    1  ZINC000050607728   -0.1000
     28 C28         1.8161    1.6750   51.5667 C.ar    1  ZINC000050607728   -0.1200
     29 C29         1.7632    3.0537   51.6511 C.ar    1  ZINC000050607728   -0.1100
     30 C30         1.0434    3.7763   50.7178 C.ar    1  ZINC000050607728   -0.1200
     31 C31         0.3797    3.1203   49.6980 C.ar    1  ZINC000050607728   -0.0800
     32 C32        -4.7820    1.6587   50.1988 C.ar    1  ZINC000050607728   -0.0400
     33 H33        -7.8612    2.7295   52.9252 H       1  ZINC000050607728    0.0600
     34 H34        -7.2627    2.8757   51.2553 H       1  ZINC000050607728    0.0800
     35 H35        -8.9809    2.5218   51.5572 H       1  ZINC000050607728    0.0700
     36 H36        -9.2461   -0.2492   51.1411 H       1  ZINC000050607728    0.0600
     37 H37        -8.3337   -0.9808   52.4829 H       1  ZINC000050607728    0.0800
     38 H38        -9.4707    0.3510   52.8017 H       1  ZINC000050607728    0.0700
     39 H39        -5.2342    2.0558   53.5390 H       1  ZINC000050607728    0.1400
     40 H40        -3.4221    3.6811   53.1847 H       1  ZINC000050607728    0.1400
     41 H41        -2.4867    4.0162   50.9346 H       1  ZINC000050607728    0.1300
     42 H42        -3.9676    3.1669   47.9702 H       1  ZINC000050607728    0.0900
     43 H43        -2.3777    3.5120   48.6924 H       1  ZINC000050607728    0.0900
     44 H44        -0.7566    2.5347   47.0858 H       1  ZINC000050607728    0.4100
     45 H45        -1.0253    3.1232   45.2588 H       1  ZINC000050607728    0.1300
     46 H46        -0.7858    4.4012   43.1710 H       1  ZINC000050607728    0.1300
     47 H47         1.2799    4.2270   41.8466 H       1  ZINC000050607728    0.1300
     48 H48         3.1173    2.7754   42.6008 H       1  ZINC000050607728    0.1300
     49 H49         2.9011    1.4945   44.6893 H       1  ZINC000050607728    0.1400
     50 H50         1.1901   -0.0584   50.4834 H       1  ZINC000050607728    0.1200
     51 H51         2.3784    1.1106   52.2958 H       1  ZINC000050607728    0.1200
     52 H52         2.2840    3.5665   52.4463 H       1  ZINC000050607728    0.1200
     53 H53         1.0019    4.8535   50.7839 H       1  ZINC000050607728    0.1300
     54 H54        -0.1826    3.6847   48.9690 H       1  ZINC000050607728    0.1300
     55 H55        -5.1623    1.0943   49.3601 H       1  ZINC000050607728    0.1300
@<TRIPOS>BOND
     1     1     2    1
     2     1    33    1
     3     1    34    1
     4     1    35    1
     5     2     3    1
     6     2     4   am
     7     3    36    1
     8     3    37    1
     9     3    38    1
    10     4     5    2
    11     4     6    1
    12     6    32   ar
    13     6     7   ar
    14     7     8   ar
    15     7    39    1
    16     8     9   ar
    17     8    40    1
    18     9    10   ar
    19     9    41    1
    20    10    11    1
    21    10    32   ar
    22    11    12    1
    23    11    42    1
    24    11    43    1
    25    12    13    1
    26    13    14    2
    27    13    15    1
    28    15    16    1
    29    15    17    1
    30    15    26    1
    31    17    18   am
    32    17    44    1
    33    18    19    2
    34    18    20    1
    35    20    25   ar
    36    20    21   ar
    37    21    22   ar
    38    21    45    1
    39    22    23   ar
    40    22    46    1
    41    23    24   ar
    42    23    47    1
    43    24    25   ar
    44    24    48    1
    45    25    49    1
    46    26    31   ar
    47    26    27   ar
    48    27    28   ar
    49    27    50    1
    50    28    29   ar
    51    28    51    1
    52    29    30   ar
    53    29    52    1
    54    30    31   ar
    55    30    53    1
    56    31    54    1
    57    32    55    1
@<TRIPOS>SUBSTRUCTURE
     1 ZINC000050607728        1 TEMP              0 ****  ****    0 ROOT


##########                                Name:    ZINC000822206030
##########                DOCK_Rotatable_Bonds:                   7
##########                         Heavy_Atoms:                  29
##########                    Molecular_Weight:             391.448
##########                DOCK_Rotatable_Bonds:                   7
##########                       Formal_Charge:         -0.00999995
##########                     HBond_Acceptors:                   7
##########                        HBond_Donors:                   1
##########                         Heavy_Atoms:                  29
##########                          Grid_Score:          -28.788103
##########                     Grid_vdw_energy:          -28.138161
##########                      Grid_es_energy:           -0.649943
##########           Internal_energy_repulsive:           39.426247

@<TRIPOS>MOLECULE
ZINC000822206030
 51 55 1 0 0
SMALL
USER_CHARGES


@<TRIPOS>ATOM
      1 C1          0.8423    3.2967   47.5144 C.3     1  ZINC000822206030   -0.1300
      2 C2          0.1319    1.9817   47.7079 C.ar    1  ZINC000822206030   -0.0400
      3 C3         -0.0129    1.1117   46.6453 C.ar    1  ZINC000822206030   -0.1500
      4 C4         -0.6661   -0.0966   46.8225 C.ar    1  ZINC000822206030    0.1100
      5 F5         -0.8070   -0.9462   45.7816 F       1  ZINC000822206030   -0.1400
      6 C6         -1.1745   -0.4352   48.0650 C.ar    1  ZINC000822206030   -0.1500
      7 C7         -1.0319    0.4323   49.1304 C.ar    1  ZINC000822206030   -0.0800
      8 C8         -0.3728    1.6417   48.9562 C.ar    1  ZINC000822206030    0.1100
      9 N9         -0.2267    2.5224   50.0350 N.am    1  ZINC000822206030   -0.5600
     10 C10        -1.1375    3.6607   50.1799 C.3     1  ZINC000822206030    0.1500
     11 C11        -2.4876    3.1690   50.6342 C.ar    1  ZINC000822206030   -0.0900
     12 C12        -2.9325    3.4585   51.9115 C.ar    1  ZINC000822206030   -0.1000
     13 C13        -4.1684    3.0110   52.3325 C.ar    1  ZINC000822206030   -0.0800
     14 C14        -4.9682    2.2665   51.4685 C.ar    1  ZINC000822206030   -0.0100
     15 C15        -6.2987    1.7829   51.9157 C.2     1  ZINC000822206030    0.2200
     16 N16        -6.8341    1.9426   53.1094 N.2     1  ZINC000822206030   -0.2900
     17 N17        -7.9940    1.3813   53.0998 N.pl3   1  ZINC000822206030   -0.2300
     18 N18        -8.2105    0.8709   51.9380 N.2     1  ZINC000822206030   -0.0500
     19 N19        -7.1916    1.1035   51.1820 N.2     1  ZINC000822206030   -0.2700
     20 C20        -4.5154    1.9777   50.1832 C.ar    1  ZINC000822206030   -0.0800
     21 C21        -3.2800    2.4345   49.7705 C.ar    1  ZINC000822206030   -0.0900
     22 C22         0.7519    2.3229   50.9401 C.2     1  ZINC000822206030    0.5500
     23 O23         0.8794    3.0865   51.8737 O.2     1  ZINC000822206030   -0.5000
     24 C24         1.6876    1.1510   50.7920 C.3     1  ZINC000822206030   -0.1900
     25 H25         1.2312    0.2267   50.4378 H       1  ZINC000822206030    0.1200
     26 C26         2.8355    1.0321   51.7966 C.3     1  ZINC000822206030   -0.1400
     27 C27         3.1229    1.4443   50.3508 C.3     1  ZINC000822206030   -0.0900
     28 H28         3.6109    0.7129   49.7064 H       1  ZINC000822206030    0.1100
     29 C29         3.4992    2.9049   50.0939 C.3     1  ZINC000822206030   -0.1100
     30 C30         4.9343    3.1976   49.6518 C.3     1  ZINC000822206030   -0.2000
     31 C31         3.7853    3.3171   48.6486 C.3     1  ZINC000822206030   -0.1200
     32 H32         1.9071    3.1661   47.7071 H       1  ZINC000822206030    0.0900
     33 H33         0.6979    3.6404   46.4901 H       1  ZINC000822206030    0.0700
     34 H34         0.4357    4.0345   48.2060 H       1  ZINC000822206030    0.0700
     35 H35         0.3834    1.3738   45.6754 H       1  ZINC000822206030    0.1400
     36 H36        -1.6833   -1.3781   48.2012 H       1  ZINC000822206030    0.1400
     37 H37        -1.4289    0.1680   50.0994 H       1  ZINC000822206030    0.1400
     38 H38        -0.7365    4.3552   50.9182 H       1  ZINC000822206030    0.1000
     39 H39        -1.2395    4.1687   49.2210 H       1  ZINC000822206030    0.0900
     40 H40        -2.3114    4.0355   52.5807 H       1  ZINC000822206030    0.1300
     41 H41        -4.5147    3.2373   53.3301 H       1  ZINC000822206030    0.1400
     42 H42        -8.6076    1.3481   53.8504 H       1  ZINC000822206030    0.4800
     43 H43        -5.1313    1.4005   49.5095 H       1  ZINC000822206030    0.1300
     44 H44        -2.9279    2.2114   48.7742 H       1  ZINC000822206030    0.1400
     45 H45         2.9138    1.8016   52.5646 H       1  ZINC000822206030    0.1000
     46 H46         3.1344    0.0296   52.1030 H       1  ZINC000822206030    0.1000
     47 H47         3.0117    3.6362   50.7387 H       1  ZINC000822206030    0.1000
     48 H48         5.3914    4.1216   50.0058 H       1  ZINC000822206030    0.0900
     49 H49         5.6105    2.3497   49.5439 H       1  ZINC000822206030    0.0900
     50 H50         3.7057    2.5477   47.8806 H       1  ZINC000822206030    0.0800
     51 H51         3.4866    4.3197   48.3426 H       1  ZINC000822206030    0.0900
@<TRIPOS>BOND
     1     1     2    1
     2     1    32    1
     3     1    33    1
     4     1    34    1
     5     2     8   ar
     6     2     3   ar
     7     3     4   ar
     8     3    35    1
     9     4     5    1
    10     4     6   ar
    11     6     7   ar
    12     6    36    1
    13     7     8   ar
    14     7    37    1
    15     8     9    1
    16     9    10    1
    17     9    22   am
    18    10    11    1
    19    10    38    1
    20    10    39    1
    21    11    21   ar
    22    11    12   ar
    23    12    13   ar
    24    12    40    1
    25    13    14   ar
    26    13    41    1
    27    14    15    1
    28    14    20   ar
    29    15    19    1
    30    15    16    2
    31    16    17    1
    32    17    18    1
    33    17    42    1
    34    18    19    2
    35    20    21   ar
    36    20    43    1
    37    21    44    1
    38    22    23    2
    39    22    24    1
    40    24    25    1
    41    24    27    1
    42    24    26    1
    43    26    27    1
    44    26    45    1
    45    26    46    1
    46    27    28    1
    47    27    29    1
    48    29    31    1
    49    29    30    1
    50    29    47    1
    51    30    31    1
    52    30    48    1
    53    30    49    1
    54    31    50    1
    55    31    51    1
@<TRIPOS>SUBSTRUCTURE
     1 ZINC000822206030        1 TEMP              0 ****  ****    0 ROOT


##########                                Name:    ZINC000129637895
##########                DOCK_Rotatable_Bonds:                   7
##########                         Heavy_Atoms:                  26
##########                    Molecular_Weight:             374.464
##########                DOCK_Rotatable_Bonds:                   7
##########                       Formal_Charge:        -5.51343e-07
##########                     HBond_Acceptors:                   8
##########                        HBond_Donors:                   1
##########                         Heavy_Atoms:                  26
##########                          Grid_Score:          -28.772846
##########                     Grid_vdw_energy:          -28.421545
##########                      Grid_es_energy:           -0.351300
##########           Internal_energy_repulsive:           21.719193

@<TRIPOS>MOLECULE
ZINC000129637895
 48 50 1 0 0
SMALL
USER_CHARGES


@<TRIPOS>ATOM
      1 C1        -11.7367    3.6613   49.9441 C.3     1  ZINC000129637895   -0.1500
      2 C2        -10.9820    3.5362   51.2691 C.3     1  ZINC000129637895   -0.0500
      3 C3        -10.7111    2.0822   51.5575 C.2     1  ZINC000129637895    0.0300
      4 C4         -9.5549    1.6468   52.0896 C.2     1  ZINC000129637895   -0.0200
      5 N5         -8.4649    2.4399   52.4458 N.am    1  ZINC000129637895   -0.5900
      6 C6         -7.2221    1.9184   52.4417 C.2     1  ZINC000129637895    0.5000
      7 O7         -7.0516    0.7584   52.1264 O.2     1  ZINC000129637895   -0.4800
      8 C8         -6.0555    2.7670   52.8247 C.2     1  ZINC000129637895    0.5200
      9 O9         -5.8850    3.0758   53.9860 O.2     1  ZINC000129637895   -0.5100
     10 N10        -5.1914    3.1903   51.8810 N.am    1  ZINC000129637895   -0.5800
     11 C11        -4.0320    4.0220   52.2376 C.3     1  ZINC000129637895    0.0800
     12 C12        -2.7744    3.3895   51.6323 C.3     1  ZINC000129637895    0.0400
     13 N13        -2.9759    3.1898   50.1909 N.3     1  ZINC000129637895   -0.4900
     14 C14        -1.7959    2.7674   49.5744 C.ar    1  ZINC000129637895    0.1500
     15 C15        -0.9305    3.7000   49.0159 C.ar    1  ZINC000129637895   -0.2100
     16 C16         0.2368    3.2820   48.4065 C.ar    1  ZINC000129637895   -0.0500
     17 C17         0.5466    1.9365   48.3504 C.ar    1  ZINC000129637895   -0.2300
     18 C18        -0.3142    1.0003   48.9067 C.ar    1  ZINC000129637895    0.1500
     19 O19        -0.0077   -0.3225   48.8510 O.3     1  ZINC000129637895   -0.3200
     20 C20        -0.9701   -1.1864   48.2433 C.3     1  ZINC000129637895    0.0300
     21 C21        -1.4833    1.4157   49.5238 C.ar    1  ZINC000129637895   -0.1700
     22 C22        -4.0719    2.2469   49.9316 C.3     1  ZINC000129637895    0.0400
     23 C23        -5.3793    2.8276   50.4681 C.3     1  ZINC000129637895    0.1100
     24 S24        -9.6631   -0.1039   52.2575 S.3     1  ZINC000129637895    0.2400
     25 C25       -11.2411   -0.0792   51.6004 C.2     1  ZINC000129637895   -0.0300
     26 N26       -11.5888    1.1296   51.3151 N.2     1  ZINC000129637895   -0.4500
     27 H27       -11.1336    3.2378   49.1410 H       1  ZINC000129637895    0.0600
     28 H28       -12.6817    3.1222   50.0118 H       1  ZINC000129637895    0.0500
     29 H29       -11.9327    4.7131   49.7355 H       1  ZINC000129637895    0.0700
     30 H30       -10.0371    4.0754   51.2013 H       1  ZINC000129637895    0.0900
     31 H31       -11.5851    3.9597   52.0722 H       1  ZINC000129637895    0.0700
     32 H32        -8.6010    3.3670   52.6965 H       1  ZINC000129637895    0.4300
     33 H33        -4.1653    5.0270   51.8372 H       1  ZINC000129637895    0.0900
     34 H34        -3.9334    4.0671   53.3223 H       1  ZINC000129637895    0.1400
     35 H35        -1.9220    4.0496   51.7925 H       1  ZINC000129637895    0.1000
     36 H36        -2.5850    2.4280   52.1097 H       1  ZINC000129637895    0.0500
     37 H37        -1.1707    4.7520   49.0577 H       1  ZINC000129637895    0.1300
     38 H38         0.9083    4.0082   47.9729 H       1  ZINC000129637895    0.1300
     39 H39         1.4595    1.6129   47.8727 H       1  ZINC000129637895    0.1300
     40 H40        -1.9100   -1.1264   48.7919 H       1  ZINC000129637895    0.0600
     41 H41        -1.1323   -0.8796   47.2100 H       1  ZINC000129637895    0.0600
     42 H42        -0.6020   -2.2121   48.2642 H       1  ZINC000129637895    0.1000
     43 H43        -2.1540    0.6888   49.9574 H       1  ZINC000129637895    0.1300
     44 H44        -4.1605    2.0784   48.8583 H       1  ZINC000129637895    0.1000
     45 H45        -3.8646    1.3013   50.4326 H       1  ZINC000129637895    0.0500
     46 H46        -6.1726    2.0851   50.3813 H       1  ZINC000129637895    0.1100
     47 H47        -5.6446    3.7189   49.8996 H       1  ZINC000129637895    0.0900
     48 H48       -11.8603   -0.9512   51.4497 H       1  ZINC000129637895    0.2000
@<TRIPOS>BOND
     1     1     2    1
     2     1    27    1
     3     1    28    1
     4     1    29    1
     5     2     3    1
     6     2    30    1
     7     2    31    1
     8     3    26    1
     9     3     4    2
    10     4     5    1
    11     4    24    1
    12     5     6   am
    13     5    32    1
    14     6     7    2
    15     6     8    1
    16     8     9    2
    17     8    10   am
    18    10    23    1
    19    10    11    1
    20    11    12    1
    21    11    33    1
    22    11    34    1
    23    12    13    1
    24    12    35    1
    25    12    36    1
    26    13    14    1
    27    13    22    1
    28    14    21   ar
    29    14    15   ar
    30    15    16   ar
    31    15    37    1
    32    16    17   ar
    33    16    38    1
    34    17    18   ar
    35    17    39    1
    36    18    19    1
    37    18    21   ar
    38    19    20    1
    39    20    40    1
    40    20    41    1
    41    20    42    1
    42    21    43    1
    43    22    23    1
    44    22    44    1
    45    22    45    1
    46    23    46    1
    47    23    47    1
    48    24    25    1
    49    25    26    2
    50    25    48    1
@<TRIPOS>SUBSTRUCTURE
     1 ZINC000129637895        1 TEMP              0 ****  ****    0 ROOT


##########                                Name:    ZINC000055987960
##########                DOCK_Rotatable_Bonds:                   6
##########                         Heavy_Atoms:                  28
##########                    Molecular_Weight:             404.868
##########                DOCK_Rotatable_Bonds:                   6
##########                       Formal_Charge:          0.00999941
##########                     HBond_Acceptors:                   7
##########                        HBond_Donors:                   1
##########                         Heavy_Atoms:                  28
##########                          Grid_Score:          -28.757746
##########                     Grid_vdw_energy:          -28.470798
##########                      Grid_es_energy:           -0.286948
##########           Internal_energy_repulsive:           14.734964

@<TRIPOS>MOLECULE
ZINC000055987960
 50 52 1 0 0
SMALL
USER_CHARGES


@<TRIPOS>ATOM
      1 C1         -6.8318    2.7962   53.9737 C.3     1  ZINC000055987960   -0.1800
      2 C2         -7.8254    2.7796   52.8104 C.3     1  ZINC000055987960    0.0700
      3 H3         -8.7947    3.1403   53.1545 H       1  ZINC000055987960    0.1200
      4 C4         -7.3118    3.6856   51.6856 C.3     1  ZINC000055987960    0.0800
      5 N5         -6.1005    3.0755   51.1147 N.am    1  ZINC000055987960   -0.6100
      6 C6         -4.9695    3.7920   50.9606 C.2     1  ZINC000055987960    0.5700
      7 O7         -4.9398    4.9606   51.2951 O.2     1  ZINC000055987960   -0.5300
      8 C8         -3.7669    3.1582   50.3856 C.ar    1  ZINC000055987960   -0.1500
      9 C9         -3.8059    2.6249   49.0945 C.ar    1  ZINC000055987960   -0.0700
     10 C10        -2.6823    2.0347   48.5610 C.ar    1  ZINC000055987960   -0.1500
     11 C11        -1.5089    1.9689   49.3058 C.ar    1  ZINC000055987960    0.1700
     12 N12        -0.3726    1.3709   48.7622 N.am    1  ZINC000055987960   -0.6700
     13 C13        -0.1586    0.0513   48.9328 C.2     1  ZINC000055987960    0.5200
     14 O14        -0.9543   -0.6161   49.5592 O.2     1  ZINC000055987960   -0.5000
     15 C15         1.0695   -0.5952   48.3454 C.3     1  ZINC000055987960   -0.1100
     16 C16         1.5123    0.1788   47.1305 C.ar    1  ZINC000055987960   -0.1000
     17 C17         2.5544    1.0844   47.2283 C.ar    1  ZINC000055987960    0.1300
     18 F18         3.1752    1.2751   48.4130 F       1  ZINC000055987960   -0.1300
     19 C19         2.9606    1.7947   46.1109 C.ar    1  ZINC000055987960   -0.1500
     20 C20         2.3257    1.5991   44.8994 C.ar    1  ZINC000055987960   -0.0700
     21 C21         1.2847    0.6944   44.8016 C.ar    1  ZINC000055987960   -0.1200
     22 C22         0.8811   -0.0197   45.9156 C.ar    1  ZINC000055987960    0.0000
     23 Cl23       -0.4257   -1.1558   45.7916 Cl      1  ZINC000055987960   -0.0500
     24 C24        -1.4667    2.4990   50.5915 C.ar    1  ZINC000055987960   -0.1200
     25 C25        -2.5852    3.0951   51.1290 C.ar    1  ZINC000055987960   -0.0500
     26 C26        -6.1605    1.6599   50.7175 C.3     1  ZINC000055987960    0.0600
     27 C27        -6.7301    0.8526   51.8896 C.3     1  ZINC000055987960    0.0700
     28 H28        -6.0183    0.8575   52.7151 H       1  ZINC000055987960    0.0700
     29 C29        -6.9842   -0.5883   51.4422 C.3     1  ZINC000055987960   -0.1500
     30 O30        -7.9604    1.4449   52.3167 O.3     1  ZINC000055987960   -0.3700
     31 H31        -5.8627    2.4354   53.6290 H       1  ZINC000055987960    0.0600
     32 H32        -6.7280    3.8145   54.3486 H       1  ZINC000055987960    0.0700
     33 H33        -7.1967    2.1504   54.7724 H       1  ZINC000055987960    0.0700
     34 H34        -8.0748    3.7796   50.9127 H       1  ZINC000055987960    0.0800
     35 H35        -7.0726    4.6701   52.0874 H       1  ZINC000055987960    0.1000
     36 H36        -4.7164    2.6752   48.5160 H       1  ZINC000055987960    0.1400
     37 H37        -2.7118    1.6219   47.5634 H       1  ZINC000055987960    0.1300
     38 H38         0.2638    1.9047   48.2613 H       1  ZINC000055987960    0.4200
     39 H39         1.8689   -0.5968   49.0865 H       1  ZINC000055987960    0.1200
     40 H40         0.8382   -1.6209   48.0584 H       1  ZINC000055987960    0.1200
     41 H41         3.7735    2.5017   46.1866 H       1  ZINC000055987960    0.1500
     42 H42         2.6425    2.1534   44.0283 H       1  ZINC000055987960    0.1500
     43 H43         0.7889    0.5425   43.8544 H       1  ZINC000055987960    0.1400
     44 H44        -0.5544    2.4459   51.1671 H       1  ZINC000055987960    0.1500
     45 H45        -2.5519    3.5064   52.1270 H       1  ZINC000055987960    0.1300
     46 H46        -6.8075    1.5499   49.8472 H       1  ZINC000055987960    0.0800
     47 H47        -5.1588    1.3029   50.4784 H       1  ZINC000055987960    0.1100
     48 H48        -6.0468   -1.0373   51.1138 H       1  ZINC000055987960    0.0700
     49 H49        -7.3892   -1.1616   52.2761 H       1  ZINC000055987960    0.0700
     50 H50        -7.6975   -0.5924   50.6180 H       1  ZINC000055987960    0.0700
@<TRIPOS>BOND
     1     1     2    1
     2     1    31    1
     3     1    32    1
     4     1    33    1
     5     2     3    1
     6     2    30    1
     7     2     4    1
     8     4     5    1
     9     4    34    1
    10     4    35    1
    11     5     6   am
    12     5    26    1
    13     6     7    2
    14     6     8    1
    15     8    25   ar
    16     8     9   ar
    17     9    10   ar
    18     9    36    1
    19    10    11   ar
    20    10    37    1
    21    11    12    1
    22    11    24   ar
    23    12    13   am
    24    12    38    1
    25    13    14    2
    26    13    15    1
    27    15    16    1
    28    15    39    1
    29    15    40    1
    30    16    22   ar
    31    16    17   ar
    32    17    18    1
    33    17    19   ar
    34    19    20   ar
    35    19    41    1
    36    20    21   ar
    37    20    42    1
    38    21    22   ar
    39    21    43    1
    40    22    23    1
    41    24    25   ar
    42    24    44    1
    43    25    45    1
    44    26    27    1
    45    26    46    1
    46    26    47    1
    47    27    28    1
    48    27    29    1
    49    27    30    1
    50    29    48    1
    51    29    49    1
    52    29    50    1
@<TRIPOS>SUBSTRUCTURE
     1 ZINC000055987960        1 TEMP              0 ****  ****    0 ROOT


##########                                Name:    ZINC000151991096
##########                DOCK_Rotatable_Bonds:                   8
##########                         Heavy_Atoms:                  27
##########                    Molecular_Weight:             364.444
##########                DOCK_Rotatable_Bonds:                   8
##########                       Formal_Charge:          -0.0200004
##########                     HBond_Acceptors:                   5
##########                        HBond_Donors:                   1
##########                         Heavy_Atoms:                  27
##########                          Grid_Score:          -28.741943
##########                     Grid_vdw_energy:          -29.128267
##########                      Grid_es_energy:            0.386323
##########           Internal_energy_repulsive:           21.576658

@<TRIPOS>MOLECULE
ZINC000151991096
 51 53 1 0 0
SMALL
USER_CHARGES


@<TRIPOS>ATOM
      1 C1         -3.5402    5.6885   56.2785 C.3     1  ZINC000151991096   -0.1500
      2 C2         -4.4304    4.5318   56.7375 C.3     1  ZINC000151991096   -0.1300
      3 C3         -5.5177    4.2788   55.6913 C.3     1  ZINC000151991096    0.1400
      4 H4         -6.1520    3.4548   56.0184 H       1  ZINC000151991096    0.1000
      5 N5         -4.8935    3.9363   54.4111 N.am    1  ZINC000151991096   -0.7200
      6 C6         -5.5300    3.1202   53.5479 C.2     1  ZINC000151991096    0.5600
      7 O7         -6.6218    2.6670   53.8324 O.2     1  ZINC000151991096   -0.5300
      8 C8         -4.9017    2.7765   52.2572 C.ar    1  ZINC000151991096   -0.1700
      9 C9         -5.6151    2.0463   51.3032 C.ar    1  ZINC000151991096   -0.0500
     10 C10        -5.0256    1.7281   50.1001 C.ar    1  ZINC000151991096   -0.1600
     11 C11        -3.7225    2.1323   49.8342 C.ar    1  ZINC000151991096    0.1600
     12 O12        -3.1451    1.8171   48.6472 O.3     1  ZINC000151991096   -0.3000
     13 C13        -1.7283    1.9781   48.5519 C.3     1  ZINC000151991096    0.0900
     14 C14        -1.2433    1.3970   47.2488 C.ar    1  ZINC000151991096   -0.0500
     15 C15        -1.0341    2.2185   46.1609 C.ar    1  ZINC000151991096   -0.1000
     16 C16        -0.5888    1.6865   44.9635 C.ar    1  ZINC000151991096   -0.0900
     17 C17        -0.3508    0.3286   44.8486 C.ar    1  ZINC000151991096   -0.1200
     18 C18        -0.5560   -0.5048   45.9288 C.ar    1  ZINC000151991096   -0.0700
     19 C19        -0.9993    0.0261   47.1416 C.ar    1  ZINC000151991096   -0.0200
     20 C20        -1.2143   -0.8329   48.2671 C.1     1  ZINC000151991096    0.2400
     21 N21        -1.3848   -1.5144   49.1597 N.1     1  ZINC000151991096   -0.4000
     22 C22        -3.0094    2.8588   50.7806 C.ar    1  ZINC000151991096   -0.2200
     23 C23        -3.5938    3.1855   51.9839 C.ar    1  ZINC000151991096   -0.0100
     24 C24        -6.3671    5.5403   55.5234 C.3     1  ZINC000151991096    0.0700
     25 H25        -5.7357    6.3723   55.2115 H       1  ZINC000151991096    0.1000
     26 C26        -7.0646    5.8835   56.8572 C.3     1  ZINC000151991096   -0.1500
     27 C27        -8.4666    6.3553   56.3843 C.3     1  ZINC000151991096   -0.1600
     28 C28        -8.6853    5.4398   55.1535 C.3     1  ZINC000151991096    0.0500
     29 O29        -7.3882    5.3118   54.5452 O.3     1  ZINC000151991096   -0.3700
     30 H30        -4.1453    6.5872   56.1587 H       1  ZINC000151991096    0.0500
     31 H31        -2.7656    5.8687   57.0238 H       1  ZINC000151991096    0.0500
     32 H32        -3.0757    5.4336   55.3259 H       1  ZINC000151991096    0.0600
     33 H33        -3.8253    3.6331   56.8572 H       1  ZINC000151991096    0.0700
     34 H34        -4.8949    4.7867   57.6901 H       1  ZINC000151991096    0.0700
     35 H35        -4.0219    4.2970   54.1846 H       1  ZINC000151991096    0.4000
     36 H36        -6.6275    1.7316   51.5092 H       1  ZINC000151991096    0.1300
     37 H37        -5.5761    1.1634   49.3623 H       1  ZINC000151991096    0.1400
     38 H38        -1.4797    3.0385   48.5917 H       1  ZINC000151991096    0.0800
     39 H39        -1.2472    1.4606   49.3819 H       1  ZINC000151991096    0.0800
     40 H40        -1.2186    3.2795   46.2437 H       1  ZINC000151991096    0.1400
     41 H41        -0.4266    2.3345   44.1148 H       1  ZINC000151991096    0.1400
     42 H42        -0.0041   -0.0801   43.9109 H       1  ZINC000151991096    0.1400
     43 H43        -0.3702   -1.5648   45.8375 H       1  ZINC000151991096    0.1400
     44 H44        -1.9970    3.1707   50.5704 H       1  ZINC000151991096    0.1300
     45 H45        -3.0392    3.7504   52.7187 H       1  ZINC000151991096    0.1400
     46 H46        -7.1458    5.0003   57.4910 H       1  ZINC000151991096    0.0800
     47 H47        -6.5391    6.6864   57.3744 H       1  ZINC000151991096    0.0900
     48 H48        -9.2213    6.1723   57.1490 H       1  ZINC000151991096    0.0800
     49 H49        -8.4504    7.4059   56.0944 H       1  ZINC000151991096    0.0800
     50 H50        -9.0540    4.4637   55.4688 H       1  ZINC000151991096    0.0600
     51 H51        -9.3847    5.9025   54.4572 H       1  ZINC000151991096    0.0900
@<TRIPOS>BOND
     1     1     2    1
     2     1    30    1
     3     1    31    1
     4     1    32    1
     5     2     3    1
     6     2    33    1
     7     2    34    1
     8     3     4    1
     9     3     5    1
    10     3    24    1
    11     5     6   am
    12     5    35    1
    13     6     7    2
    14     6     8    1
    15     8    23   ar
    16     8     9   ar
    17     9    10   ar
    18     9    36    1
    19    10    11   ar
    20    10    37    1
    21    11    12    1
    22    11    22   ar
    23    12    13    1
    24    13    14    1
    25    13    38    1
    26    13    39    1
    27    14    19   ar
    28    14    15   ar
    29    15    16   ar
    30    15    40    1
    31    16    17   ar
    32    16    41    1
    33    17    18   ar
    34    17    42    1
    35    18    19   ar
    36    18    43    1
    37    19    20    1
    38    20    21    3
    39    22    23   ar
    40    22    44    1
    41    23    45    1
    42    24    25    1
    43    24    29    1
    44    24    26    1
    45    26    27    1
    46    26    46    1
    47    26    47    1
    48    27    28    1
    49    27    48    1
    50    27    49    1
    51    28    29    1
    52    28    50    1
    53    28    51    1
@<TRIPOS>SUBSTRUCTURE
     1 ZINC000151991096        1 TEMP              0 ****  ****    0 ROOT


##########                                Name:    ZINC000952280524
##########                DOCK_Rotatable_Bonds:                   9
##########                         Heavy_Atoms:                  25
##########                    Molecular_Weight:             348.486
##########                DOCK_Rotatable_Bonds:                   9
##########                       Formal_Charge:          -0.0100004
##########                     HBond_Acceptors:                   5
##########                        HBond_Donors:                   1
##########                         Heavy_Atoms:                  25
##########                          Grid_Score:          -28.685553
##########                     Grid_vdw_energy:          -28.257534
##########                      Grid_es_energy:           -0.428018
##########           Internal_energy_repulsive:           21.676262

@<TRIPOS>MOLECULE
ZINC000952280524
 57 59 1 0 0
SMALL
USER_CHARGES


@<TRIPOS>ATOM
      1 C1         -5.8032    5.0249   52.2145 C.3     1  ZINC000952280524   -0.1800
      2 C2         -6.2650    3.7327   51.5379 C.3     1  ZINC000952280524    0.1400
      3 C3         -7.7642    3.5406   51.7749 C.3     1  ZINC000952280524   -0.1900
      4 O4         -6.0112    3.8131   50.1339 O.3     1  ZINC000952280524   -0.5500
      5 C5         -5.4993    2.5465   52.1275 C.3     1  ZINC000952280524   -0.1200
      6 C6         -4.8676    1.7525   51.0132 C.2     1  ZINC000952280524    0.5300
      7 O7         -5.4900    0.8614   50.4752 O.2     1  ZINC000952280524   -0.5100
      8 N8         -3.6111    2.0327   50.6146 N.am    1  ZINC000952280524   -0.6300
      9 C9         -2.7472    3.0810   51.1772 C.3     1  ZINC000952280524    0.1000
     10 C10        -1.4178    3.0483   50.3942 C.3     1  ZINC000952280524   -0.1300
     11 C11        -1.8163    2.3616   49.0611 C.3     1  ZINC000952280524   -0.1000
     12 H12        -2.2543    3.0795   48.3676 H       1  ZINC000952280524    0.0900
     13 C13        -0.6163    1.6543   48.4285 C.3     1  ZINC000952280524   -0.0700
     14 C14        -1.0517    0.9768   47.1271 C.3     1  ZINC000952280524   -0.1300
     15 C15         0.1441    0.2408   46.5144 C.3     1  ZINC000952280524    0.1100
     16 N16         1.2544    1.1903   46.3582 N.am    1  ZINC000952280524   -0.6100
     17 C17         1.8582    1.3503   45.1639 C.2     1  ZINC000952280524    0.5500
     18 O18         1.4851    0.7055   44.2026 O.2     1  ZINC000952280524   -0.5500
     19 C19         2.9686    2.3049   45.0232 C.2     1  ZINC000952280524   -0.2200
     20 C20         2.8759    3.3097   44.1569 C.2     1  ZINC000952280524   -0.0300
     21 C21         1.6340    3.4693   43.3181 C.3     1  ZINC000952280524   -0.1500
     22 C22         0.3260    3.7856   44.0458 C.3     1  ZINC000952280524   -0.1700
     23 C23         1.0229    4.8685   43.2198 C.3     1  ZINC000952280524   -0.1600
     24 C24         1.6935    1.9625   47.5285 C.3     1  ZINC000952280524    0.1000
     25 C25         0.4804    2.6792   48.1298 C.3     1  ZINC000952280524   -0.1300
     26 C26        -2.8726    1.3345   49.5465 C.3     1  ZINC000952280524    0.1100
     27 H27        -6.0757    5.0001   53.2696 H       1  ZINC000952280524    0.0700
     28 H28        -4.7212    5.1174   52.1209 H       1  ZINC000952280524    0.0600
     29 H29        -6.2837    5.8778   51.7352 H       1  ZINC000952280524    0.0600
     30 H30        -8.3097    4.3856   51.3548 H       1  ZINC000952280524    0.0600
     31 H31        -8.0933    2.6199   51.2929 H       1  ZINC000952280524    0.0800
     32 H32        -7.9579    3.4792   52.8458 H       1  ZINC000952280524    0.0600
     33 H33        -6.4663    4.5436   49.6932 H       1  ZINC000952280524    0.3700
     34 H34        -4.7223    2.9129   52.7983 H       1  ZINC000952280524    0.1000
     35 H35        -6.1878    1.9093   52.6825 H       1  ZINC000952280524    0.1000
     36 H36        -3.2224    4.0550   51.0603 H       1  ZINC000952280524    0.0700
     37 H37        -2.5611    2.8812   52.2324 H       1  ZINC000952280524    0.0700
     38 H38        -1.0520    4.0590   50.2131 H       1  ZINC000952280524    0.0800
     39 H39        -0.6722    2.4564   50.9250 H       1  ZINC000952280524    0.0800
     40 H40        -0.2326    0.9026   49.1183 H       1  ZINC000952280524    0.0800
     41 H41        -1.8489    0.2638   47.3372 H       1  ZINC000952280524    0.0800
     42 H42        -1.4123    1.7307   46.4274 H       1  ZINC000952280524    0.0700
     43 H43         0.4489   -0.5727   47.1728 H       1  ZINC000952280524    0.0700
     44 H44        -0.1339   -0.1599   45.5396 H       1  ZINC000952280524    0.0900
     45 H45         3.8590    2.1897   45.6233 H       1  ZINC000952280524    0.1300
     46 H46         3.6905    4.0113   44.0545 H       1  ZINC000952280524    0.1300
     47 H47         1.5780    2.8325   42.4353 H       1  ZINC000952280524    0.1200
     48 H48        -0.5911    3.3568   43.6419 H       1  ZINC000952280524    0.1000
     49 H49         0.3635    3.8782   45.1312 H       1  ZINC000952280524    0.1000
     50 H50         1.5191    5.6737   43.7618 H       1  ZINC000952280524    0.1000
     51 H51         0.5645    5.1521   42.2724 H       1  ZINC000952280524    0.1000
     52 H52         2.1246    1.2894   48.2696 H       1  ZINC000952280524    0.0700
     53 H53         2.4378    2.6978   47.2228 H       1  ZINC000952280524    0.0900
     54 H54         0.1054    3.4171   47.4207 H       1  ZINC000952280524    0.0700
     55 H55         0.7736    3.1779   49.0536 H       1  ZINC000952280524    0.0800
     56 H56        -2.3829    0.4426   49.9372 H       1  ZINC000952280524    0.0700
     57 H57        -3.5481    1.0716   48.7324 H       1  ZINC000952280524    0.0800
@<TRIPOS>BOND
     1     1     2    1
     2     1    27    1
     3     1    28    1
     4     1    29    1
     5     2     3    1
     6     2     4    1
     7     2     5    1
     8     3    30    1
     9     3    31    1
    10     3    32    1
    11     4    33    1
    12     5     6    1
    13     5    34    1
    14     5    35    1
    15     6     7    2
    16     6     8   am
    17     8    26    1
    18     8     9    1
    19     9    10    1
    20     9    36    1
    21     9    37    1
    22    10    11    1
    23    10    38    1
    24    10    39    1
    25    11    12    1
    26    11    13    1
    27    11    26    1
    28    13    25    1
    29    13    14    1
    30    13    40    1
    31    14    15    1
    32    14    41    1
    33    14    42    1
    34    15    16    1
    35    15    43    1
    36    15    44    1
    37    16    17   am
    38    16    24    1
    39    17    18    2
    40    17    19    1
    41    19    20    2
    42    19    45    1
    43    20    21    1
    44    20    46    1
    45    21    23    1
    46    21    22    1
    47    21    47    1
    48    22    23    1
    49    22    48    1
    50    22    49    1
    51    23    50    1
    52    23    51    1
    53    24    25    1
    54    24    52    1
    55    24    53    1
    56    25    54    1
    57    25    55    1
    58    26    56    1
    59    26    57    1
@<TRIPOS>SUBSTRUCTURE
     1 ZINC000952280524        1 TEMP              0 ****  ****    0 ROOT


##########                                Name:    ZINC000763800048
##########                DOCK_Rotatable_Bonds:                   8
##########                         Heavy_Atoms:                  23
##########                    Molecular_Weight:             329.783
##########                DOCK_Rotatable_Bonds:                   8
##########                       Formal_Charge:           0.0199994
##########                     HBond_Acceptors:                   5
##########                        HBond_Donors:                   1
##########                         Heavy_Atoms:                  23
##########                          Grid_Score:          -28.675859
##########                     Grid_vdw_energy:          -27.349888
##########                      Grid_es_energy:           -1.325971
##########           Internal_energy_repulsive:            4.980853

@<TRIPOS>MOLECULE
ZINC000763800048
 39 40 1 0 0
SMALL
USER_CHARGES


@<TRIPOS>ATOM
      1 C1        -11.8569   -0.3758   51.2632 C.3     1  ZINC000763800048    0.0400
      2 O2        -11.1551    0.7009   51.9389 O.3     1  ZINC000763800048   -0.3600
      3 C3         -9.9264    0.4290   52.4056 C.2     1  ZINC000763800048    0.4600
      4 O4         -9.4667   -0.6819   52.2856 O.2     1  ZINC000763800048   -0.4900
      5 C5         -9.1202    1.5093   53.0795 C.3     1  ZINC000763800048   -0.0700
      6 C6         -8.3699    2.2994   52.0384 C.ar    1  ZINC000763800048   -0.0600
      7 C7         -8.9233    3.4538   51.5161 C.ar    1  ZINC000763800048   -0.1200
      8 C8         -8.2380    4.1819   50.5605 C.ar    1  ZINC000763800048   -0.1000
      9 C9         -6.9979    3.7581   50.1253 C.ar    1  ZINC000763800048   -0.1100
     10 C10        -6.4388    2.5989   50.6485 C.ar    1  ZINC000763800048    0.1500
     11 N11        -5.1833    2.1670   50.2102 N.am    1  ZINC000763800048   -0.6700
     12 C12        -4.0790    2.8696   50.5315 C.2     1  ZINC000763800048    0.5500
     13 O13        -4.1745    3.8800   51.2033 O.2     1  ZINC000763800048   -0.5200
     14 C14        -2.7649    2.4175   50.0728 C.2     1  ZINC000763800048   -0.2100
     15 C15        -2.6718    1.4096   49.1815 C.2     1  ZINC000763800048   -0.0100
     16 C16        -1.3505    0.9561   48.7189 C.ar    1  ZINC000763800048   -0.0800
     17 C17        -0.9151   -0.3429   49.0006 C.ar    1  ZINC000763800048   -0.0900
     18 C18         0.3237   -0.7608   48.5643 C.ar    1  ZINC000763800048   -0.1100
     19 C19         1.1373    0.1027   47.8486 C.ar    1  ZINC000763800048   -0.0200
     20 Cl20        2.6963   -0.4321   47.3036 Cl      1  ZINC000763800048   -0.0600
     21 C21         0.7125    1.3907   47.5656 C.ar    1  ZINC000763800048   -0.1100
     22 C22        -0.5263    1.8203   47.9906 C.ar    1  ZINC000763800048   -0.0800
     23 C23        -7.1275    1.8728   51.6114 C.ar    1  ZINC000763800048   -0.1300
     24 H24       -12.8352   -0.0232   50.9366 H       1  ZINC000763800048    0.1000
     25 H25       -11.2794   -0.6986   50.3969 H       1  ZINC000763800048    0.0600
     26 H26       -11.9829   -1.2138   51.9486 H       1  ZINC000763800048    0.0600
     27 H27        -9.7888    2.1732   53.6274 H       1  ZINC000763800048    0.1200
     28 H28        -8.4113    1.0553   53.7718 H       1  ZINC000763800048    0.1200
     29 H29        -9.8930    3.7874   51.8546 H       1  ZINC000763800048    0.1200
     30 H30        -8.6733    5.0828   50.1539 H       1  ZINC000763800048    0.1300
     31 H31        -6.4634    4.3270   49.3790 H       1  ZINC000763800048    0.1400
     32 H32        -5.1071    1.3618   49.6748 H       1  ZINC000763800048    0.4100
     33 H33        -1.8697    2.8909   50.4479 H       1  ZINC000763800048    0.1300
     34 H34        -3.5670    0.9352   48.8072 H       1  ZINC000763800048    0.1400
     35 H35        -1.5481   -1.0168   49.5590 H       1  ZINC000763800048    0.1400
     36 H36         0.6611   -1.7636   48.7810 H       1  ZINC000763800048    0.1400
     37 H37         1.3520    2.0583   47.0073 H       1  ZINC000763800048    0.1400
     38 H38        -0.8564    2.8244   47.7690 H       1  ZINC000763800048    0.1400
     39 H39        -6.6954    0.9714   52.0205 H       1  ZINC000763800048    0.1300
@<TRIPOS>BOND
     1     1     2    1
     2     1    24    1
     3     1    25    1
     4     1    26    1
     5     2     3    1
     6     3     4    2
     7     3     5    1
     8     5     6    1
     9     5    27    1
    10     5    28    1
    11     6    23   ar
    12     6     7   ar
    13     7     8   ar
    14     7    29    1
    15     8     9   ar
    16     8    30    1
    17     9    10   ar
    18     9    31    1
    19    10    11    1
    20    10    23   ar
    21    11    12   am
    22    11    32    1
    23    12    13    2
    24    12    14    1
    25    14    15    2
    26    14    33    1
    27    15    16    1
    28    15    34    1
    29    16    22   ar
    30    16    17   ar
    31    17    18   ar
    32    17    35    1
    33    18    19   ar
    34    18    36    1
    35    19    20    1
    36    19    21   ar
    37    21    22   ar
    38    21    37    1
    39    22    38    1
    40    23    39    1
@<TRIPOS>SUBSTRUCTURE
     1 ZINC000763800048        1 TEMP              0 ****  ****    0 ROOT


##########                                Name:    ZINC000461678839
##########                DOCK_Rotatable_Bonds:                   6
##########                         Heavy_Atoms:                  28
##########                    Molecular_Weight:             404.939
##########                DOCK_Rotatable_Bonds:                   6
##########                       Formal_Charge:          -0.0200003
##########                     HBond_Acceptors:                   7
##########                        HBond_Donors:                   0
##########                         Heavy_Atoms:                  28
##########                          Grid_Score:          -28.673498
##########                     Grid_vdw_energy:          -28.414909
##########                      Grid_es_energy:           -0.258589
##########           Internal_energy_repulsive:           11.422721

@<TRIPOS>MOLECULE
ZINC000461678839
 57 60 1 0 0
SMALL
USER_CHARGES


@<TRIPOS>ATOM
      1 C1          2.1929   -0.6782   47.6641 C.3     1  ZINC000461678839   -0.1500
      2 C2          0.7958   -0.0865   47.4668 C.3     1  ZINC000461678839   -0.0900
      3 H3          0.2619   -0.6765   46.7219 H       1  ZINC000461678839    0.0700
      4 C4          0.9311    1.3659   46.9570 C.3     1  ZINC000461678839   -0.1100
      5 C5         -0.3804    1.7944   46.3546 C.3     1  ZINC000461678839   -0.1200
      6 C6         -1.3086    2.4867   47.3687 C.3     1  ZINC000461678839    0.0600
      7 N7         -1.3317    1.8224   48.6905 N.3     1  ZINC000461678839   -0.4600
      8 C8         -2.3689    2.3067   49.4717 C.2     1  ZINC000461678839    0.3700
      9 N9         -3.6515    2.2124   49.2109 N.2     1  ZINC000461678839   -0.3100
     10 N10        -4.3299    2.7698   50.1495 N.2     1  ZINC000461678839   -0.2500
     11 C11        -3.5273    3.2489   51.0570 C.2     1  ZINC000461678839    0.1700
     12 C12        -3.9321    3.9742   52.3145 C.3     1  ZINC000461678839    0.1500
     13 O13        -5.2273    3.5308   52.7241 O.3     1  ZINC000461678839   -0.3100
     14 C14        -5.6881    3.9907   53.9172 C.ar    1  ZINC000461678839    0.1400
     15 C15        -6.9358    3.5969   54.3782 C.ar    1  ZINC000461678839   -0.2000
     16 C16        -7.4026    4.0655   55.5911 C.ar    1  ZINC000461678839   -0.0700
     17 C17        -6.6266    4.9274   56.3458 C.ar    1  ZINC000461678839   -0.0700
     18 Cl18       -7.2155    5.5153   57.8693 Cl      1  ZINC000461678839   -0.0700
     19 C19        -5.3817    5.3210   55.8879 C.ar    1  ZINC000461678839   -0.0700
     20 C20        -4.9091    4.8500   54.6782 C.ar    1  ZINC000461678839   -0.1400
     21 N21        -2.2496    2.9664   50.6601 N.pl3   1  ZINC000461678839   -0.4600
     22 C22        -1.0095    3.3086   51.3611 C.3     1  ZINC000461678839    0.1200
     23 C23        -0.7219    4.8015   51.1895 C.3     1  ZINC000461678839   -0.1400
     24 H24        -1.6443    5.3776   51.2633 H       1  ZINC000461678839    0.0900
     25 C25        -0.0248    5.0665   49.8329 C.3     1  ZINC000461678839   -0.1500
     26 C26         1.0359    6.1300   50.2154 C.3     1  ZINC000461678839    0.0500
     27 O27         1.4709    5.7151   51.5281 O.3     1  ZINC000461678839   -0.3700
     28 C28         0.2979    5.2788   52.2415 C.3     1  ZINC000461678839    0.0400
     29 C29        -1.3710    0.3819   48.6138 C.3     1  ZINC000461678839    0.0700
     30 C30         0.0705   -0.1468   48.7310 C.3     1  ZINC000461678839   -0.1100
     31 H31         2.1056   -1.7095   48.0061 H       1  ZINC000461678839    0.0500
     32 H32         2.7347   -0.6537   46.7187 H       1  ZINC000461678839    0.0500
     33 H33         2.7335   -0.0931   48.4082 H       1  ZINC000461678839    0.0600
     34 H34         1.1826    2.0232   47.7894 H       1  ZINC000461678839    0.0700
     35 H35         1.7140    1.4160   46.2003 H       1  ZINC000461678839    0.0700
     36 H36        -0.1813    2.4833   45.5337 H       1  ZINC000461678839    0.0800
     37 H37        -0.8880    0.9155   45.9572 H       1  ZINC000461678839    0.0700
     38 H38        -0.9762    3.5164   47.5007 H       1  ZINC000461678839    0.0700
     39 H39        -2.3211    2.4977   46.9653 H       1  ZINC000461678839    0.0500
     40 H40        -3.2099    3.7644   53.1034 H       1  ZINC000461678839    0.0800
     41 H41        -3.9590    5.0468   52.1224 H       1  ZINC000461678839    0.1000
     42 H42        -7.5421    2.9248   53.7892 H       1  ZINC000461678839    0.1400
     43 H43        -8.3739    3.7591   55.9504 H       1  ZINC000461678839    0.1400
     44 H44        -4.7772    5.9934   56.4784 H       1  ZINC000461678839    0.1400
     45 H45        -3.9372    5.1574   54.3211 H       1  ZINC000461678839    0.1400
     46 H46        -1.1161    3.0786   52.4213 H       1  ZINC000461678839    0.1100
     47 H47        -0.1852    2.7295   50.9449 H       1  ZINC000461678839    0.1000
     48 H48         0.4507    4.1609   49.4564 H       1  ZINC000461678839    0.0800
     49 H49        -0.7304    5.4656   49.1043 H       1  ZINC000461678839    0.0900
     50 H50         1.8683    6.1122   49.5118 H       1  ZINC000461678839    0.1000
     51 H51         0.5872    7.1226   50.2557 H       1  ZINC000461678839    0.0600
     52 H52        -0.1170    6.1078   52.8148 H       1  ZINC000461678839    0.0500
     53 H53         0.5545    4.4559   52.9086 H       1  ZINC000461678839    0.1100
     54 H54        -1.9751   -0.0131   49.4305 H       1  ZINC000461678839    0.0900
     55 H55        -1.7986    0.0765   47.6588 H       1  ZINC000461678839    0.0600
     56 H56         0.0391   -1.1829   49.0681 H       1  ZINC000461678839    0.0700
     57 H57         0.6040    0.4467   49.4734 H       1  ZINC000461678839    0.0700
@<TRIPOS>BOND
     1     1     2    1
     2     1    31    1
     3     1    32    1
     4     1    33    1
     5     2     3    1
     6     2    30    1
     7     2     4    1
     8     4     5    1
     9     4    34    1
    10     4    35    1
    11     5     6    1
    12     5    36    1
    13     5    37    1
    14     6     7    1
    15     6    38    1
    16     6    39    1
    17     7     8    1
    18     7    29    1
    19     8    21    1
    20     8     9    2
    21     9    10    1
    22    10    11    2
    23    11    12    1
    24    11    21    1
    25    12    13    1
    26    12    40    1
    27    12    41    1
    28    13    14    1
    29    14    20   ar
    30    14    15   ar
    31    15    16   ar
    32    15    42    1
    33    16    17   ar
    34    16    43    1
    35    17    18    1
    36    17    19   ar
    37    19    20   ar
    38    19    44    1
    39    20    45    1
    40    21    22    1
    41    22    23    1
    42    22    46    1
    43    22    47    1
    44    23    24    1
    45    23    28    1
    46    23    25    1
    47    25    26    1
    48    25    48    1
    49    25    49    1
    50    26    27    1
    51    26    50    1
    52    26    51    1
    53    27    28    1
    54    28    52    1
    55    28    53    1
    56    29    30    1
    57    29    54    1
    58    29    55    1
    59    30    56    1
    60    30    57    1
@<TRIPOS>SUBSTRUCTURE
     1 ZINC000461678839        1 TEMP              0 ****  ****    0 ROOT


##########                                Name:    ZINC001076281847
##########                DOCK_Rotatable_Bonds:                   4
##########                         Heavy_Atoms:                  24
##########                    Molecular_Weight:             362.883
##########                DOCK_Rotatable_Bonds:                   4
##########                       Formal_Charge:         -0.00999959
##########                     HBond_Acceptors:                   7
##########                        HBond_Donors:                   0
##########                         Heavy_Atoms:                  24
##########                          Grid_Score:          -28.669401
##########                     Grid_vdw_energy:          -28.980646
##########                      Grid_es_energy:            0.311244
##########           Internal_energy_repulsive:           10.250697

@<TRIPOS>MOLECULE
ZINC001076281847
 43 46 1 0 0
SMALL
USER_CHARGES


@<TRIPOS>ATOM
      1 C1         -6.5080    0.4440   51.4615 C.3     1  ZINC001076281847   -0.0900
      2 C2         -5.8694    1.4712   50.5625 C.2     1  ZINC001076281847    0.1400
      3 N3         -6.4942    2.5598   50.2213 N.2     1  ZINC001076281847   -0.4600
      4 S4         -5.4500    3.4419   49.2171 S.3     1  ZINC001076281847    0.2500
      5 C5         -4.1590    2.3060   49.2730 C.2     1  ZINC001076281847   -0.2100
      6 C6         -2.8222    2.4099   48.5849 C.3     1  ZINC001076281847    0.1200
      7 N7         -1.8807    1.4643   49.1990 N.3     1  ZINC001076281847   -0.5000
      8 C8         -0.7105    2.1669   49.7482 C.3     1  ZINC001076281847    0.0300
      9 C9          0.5182    1.2879   49.4473 C.3     1  ZINC001076281847   -0.1000
     10 H10         0.8050    0.6449   50.2792 H       1  ZINC001076281847    0.1200
     11 C11         1.6653    2.2090   48.9549 C.3     1  ZINC001076281847   -0.1300
     12 C12         1.1932    2.5637   47.5233 C.3     1  ZINC001076281847    0.1000
     13 N13         0.5678    1.3291   47.0160 N.am    1  ZINC001076281847   -0.6000
     14 C14         0.4351    0.9933   45.7176 C.2     1  ZINC001076281847    0.5700
     15 O15        -0.0999   -0.0544   45.4126 O.2     1  ZINC001076281847   -0.4900
     16 C16         0.9410    1.9009   44.6627 C.ar    1  ZINC001076281847   -0.0800
     17 C17         0.4672    3.2119   44.5546 C.ar    1  ZINC001076281847   -0.1800
     18 C18         0.9670    4.0248   43.5558 C.ar    1  ZINC001076281847    0.1000
     19 N19         1.8771    3.5803   42.7122 N.ar    1  ZINC001076281847   -0.4500
     20 C20         2.3513    2.3524   42.7775 C.ar    1  ZINC001076281847    0.1100
     21 C21         1.9111    1.4722   43.7493 C.ar    1  ZINC001076281847   -0.0500
     22 Cl22        2.5426   -0.1430   43.8271 Cl      1  ZINC001076281847   -0.0100
     23 C23         0.1044    0.5079   48.1702 C.3     1  ZINC001076281847    0.1000
     24 H24         0.5375   -0.4921   48.1438 H       1  ZINC001076281847    0.1100
     25 C25        -1.4289    0.4615   48.2229 C.3     1  ZINC001076281847    0.0200
     26 C26        -4.5940    1.3036   50.0680 C.2     1  ZINC001076281847   -0.1800
     27 H27        -6.2124    0.6308   52.4939 H       1  ZINC001076281847    0.0700
     28 H28        -7.5926    0.5107   51.3763 H       1  ZINC001076281847    0.0800
     29 H29        -6.1809   -0.5525   51.1645 H       1  ZINC001076281847    0.0900
     30 H30        -2.9385    2.1721   47.5275 H       1  ZINC001076281847    0.1000
     31 H31        -2.4380    3.4246   48.6889 H       1  ZINC001076281847    0.1000
     32 H32        -0.6001    3.1391   49.2676 H       1  ZINC001076281847    0.0600
     33 H33        -0.8234    2.2937   50.8249 H       1  ZINC001076281847    0.0900
     34 H34         1.7404    3.1032   49.5736 H       1  ZINC001076281847    0.0900
     35 H35         2.6136    1.6722   48.9311 H       1  ZINC001076281847    0.0800
     36 H36         0.4643    3.3735   47.5539 H       1  ZINC001076281847    0.0800
     37 H37         2.0441    2.8412   46.9011 H       1  ZINC001076281847    0.0800
     38 H38        -0.2786    3.5835   45.2417 H       1  ZINC001076281847    0.1800
     39 H39         0.6066    5.0388   43.4646 H       1  ZINC001076281847    0.1700
     40 H40         3.0967    2.0306   42.0652 H       1  ZINC001076281847    0.1700
     41 H41        -1.7576   -0.5355   48.5163 H       1  ZINC001076281847    0.1000
     42 H42        -1.8390    0.7116   47.2444 H       1  ZINC001076281847    0.0700
     43 H43        -3.9918    0.4357   50.2928 H       1  ZINC001076281847    0.1400
@<TRIPOS>BOND
     1     1     2    1
     2     1    27    1
     3     1    28    1
     4     1    29    1
     5     2    26    1
     6     2     3    2
     7     3     4    1
     8     4     5    1
     9     5     6    1
    10     5    26    2
    11     6     7    1
    12     6    30    1
    13     6    31    1
    14     7    25    1
    15     7     8    1
    16     8     9    1
    17     8    32    1
    18     8    33    1
    19     9    10    1
    20     9    23    1
    21     9    11    1
    22    11    12    1
    23    11    34    1
    24    11    35    1
    25    12    13    1
    26    12    36    1
    27    12    37    1
    28    13    14   am
    29    13    23    1
    30    14    15    2
    31    14    16    1
    32    16    21   ar
    33    16    17   ar
    34    17    18   ar
    35    17    38    1
    36    18    19   ar
    37    18    39    1
    38    19    20   ar
    39    20    21   ar
    40    20    40    1
    41    21    22    1
    42    23    24    1
    43    23    25    1
    44    25    41    1
    45    25    42    1
    46    26    43    1
@<TRIPOS>SUBSTRUCTURE
     1 ZINC001076281847        1 TEMP              0 ****  ****    0 ROOT


##########                                Name:    ZINC000817655807
##########                DOCK_Rotatable_Bonds:                   3
##########                         Heavy_Atoms:                  24
##########                    Molecular_Weight:             352.774
##########                DOCK_Rotatable_Bonds:                   3
##########                       Formal_Charge:         3.35276e-07
##########                     HBond_Acceptors:                   8
##########                        HBond_Donors:                   0
##########                         Heavy_Atoms:                  24
##########                          Grid_Score:          -28.666866
##########                     Grid_vdw_energy:          -27.693039
##########                      Grid_es_energy:           -0.973828
##########           Internal_energy_repulsive:            2.211891

@<TRIPOS>MOLECULE
ZINC000817655807
 41 44 1 0 0
SMALL
USER_CHARGES


@<TRIPOS>ATOM
      1 C1         -8.8137   -0.3091   52.2555 C.3     1  ZINC000817655807    0.1100
      2 N2         -7.8998    0.8311   52.1496 N.am    1  ZINC000817655807   -0.6400
      3 C3         -6.7570    0.9310   51.2241 C.3     1  ZINC000817655807    0.1000
      4 C4         -6.1684    2.3091   51.5394 C.3     1  ZINC000817655807    0.0500
      5 C5         -4.6610    2.3466   51.7913 C.3     1  ZINC000817655807    0.1200
      6 N6         -4.5401    2.6841   50.3575 N.am    1  ZINC000817655807   -0.6500
      7 C7         -3.5631    2.5565   49.4379 C.2     1  ZINC000817655807    0.5500
      8 O8         -3.7484    2.9334   48.3002 O.2     1  ZINC000817655807   -0.5100
      9 C9         -2.2405    1.9457   49.8235 C.3     1  ZINC000817655807   -0.0900
     10 C10        -1.3886    1.7738   48.5923 C.ar    1  ZINC000817655807   -0.0600
     11 C11        -1.3426    0.5506   47.9505 C.ar    1  ZINC000817655807   -0.0900
     12 C12        -0.5600    0.3887   46.8214 C.ar    1  ZINC000817655807   -0.0300
     13 Cl13       -0.5041   -1.1493   46.0181 Cl      1  ZINC000817655807   -0.0500
     14 C14         0.1801    1.4547   46.3302 C.ar    1  ZINC000817655807    0.0600
     15 O15         0.9519    1.2785   45.2228 O.3     1  ZINC000817655807   -0.2900
     16 C16         1.3862    2.4631   44.5459 C.3     1  ZINC000817655807    0.0200
     17 C17         1.9098    3.4522   45.5961 C.3     1  ZINC000817655807    0.0200
     18 O18         0.8443    3.7454   46.5063 O.3     1  ZINC000817655807   -0.3000
     19 C19         0.1302    2.6852   46.9740 C.ar    1  ZINC000817655807    0.0600
     20 C20        -0.6592    2.8415   48.1037 C.ar    1  ZINC000817655807   -0.0900
     21 C21        -5.9185    3.2166   50.3347 C.3     1  ZINC000817655807    0.1100
     22 O22        -7.0085    2.8480   52.5861 O.3     1  ZINC000817655807   -0.3000
     23 C23        -7.9695    1.9576   52.8750 C.2     1  ZINC000817655807    0.6400
     24 O24        -8.8202    2.1505   53.7210 O.2     1  ZINC000817655807   -0.5100
     25 H25        -9.5645   -0.1033   53.0184 H       1  ZINC000817655807    0.0900
     26 H26        -9.3054   -0.4710   51.2963 H       1  ZINC000817655807    0.0700
     27 H27        -8.2511   -1.2013   52.5306 H       1  ZINC000817655807    0.0700
     28 H28        -6.0282    0.1461   51.4268 H       1  ZINC000817655807    0.1000
     29 H29        -7.0953    0.8850   50.1890 H       1  ZINC000817655807    0.1000
     30 H30        -4.3462    3.1476   52.4601 H       1  ZINC000817655807    0.1100
     31 H31        -4.2342    1.3785   52.0532 H       1  ZINC000817655807    0.1000
     32 H32        -1.7302    2.6001   50.5300 H       1  ZINC000817655807    0.1100
     33 H33        -2.4105    0.9735   50.2863 H       1  ZINC000817655807    0.1100
     34 H34        -1.9182   -0.2801   48.3312 H       1  ZINC000817655807    0.1400
     35 H35         2.1833    2.2148   43.8453 H       1  ZINC000817655807    0.1300
     36 H36         0.5485    2.9073   44.0083 H       1  ZINC000817655807    0.0800
     37 H37         2.7437    3.0059   46.1379 H       1  ZINC000817655807    0.0800
     38 H38         2.2376    4.3691   45.1063 H       1  ZINC000817655807    0.1300
     39 H39        -0.7009    3.7975   48.6044 H       1  ZINC000817655807    0.1400
     40 H40        -6.4845    2.9353   49.4466 H       1  ZINC000817655807    0.1000
     41 H41        -5.9833    4.2803   50.5637 H       1  ZINC000817655807    0.1100
@<TRIPOS>BOND
     1     1     2    1
     2     1    25    1
     3     1    26    1
     4     1    27    1
     5     2    23   am
     6     2     3    1
     7     3     4    1
     8     3    28    1
     9     3    29    1
    10     4    21    1
    11     4     5    1
    12     4    22    1
    13     5     6    1
    14     5    30    1
    15     5    31    1
    16     6     7   am
    17     6    21    1
    18     7     8    2
    19     7     9    1
    20     9    10    1
    21     9    32    1
    22     9    33    1
    23    10    20   ar
    24    10    11   ar
    25    11    12   ar
    26    11    34    1
    27    12    13    1
    28    12    14   ar
    29    14    19   ar
    30    14    15    1
    31    15    16    1
    32    16    17    1
    33    16    35    1
    34    16    36    1
    35    17    18    1
    36    17    37    1
    37    17    38    1
    38    18    19    1
    39    19    20   ar
    40    20    39    1
    41    21    40    1
    42    21    41    1
    43    22    23    1
    44    23    24    2
@<TRIPOS>SUBSTRUCTURE
     1 ZINC000817655807        1 TEMP              0 ****  ****    0 ROOT


##########                                Name:    ZINC001064463188
##########                DOCK_Rotatable_Bonds:                   6
##########                         Heavy_Atoms:                  25
##########                    Molecular_Weight:             342.441
##########                DOCK_Rotatable_Bonds:                   6
##########                       Formal_Charge:          -0.0100004
##########                     HBond_Acceptors:                   6
##########                        HBond_Donors:                   0
##########                         Heavy_Atoms:                  25
##########                          Grid_Score:          -28.647188
##########                     Grid_vdw_energy:          -27.500347
##########                      Grid_es_energy:           -1.146841
##########           Internal_energy_repulsive:           13.998425

@<TRIPOS>MOLECULE
ZINC001064463188
 51 54 1 0 0
SMALL
USER_CHARGES


@<TRIPOS>ATOM
      1 C1         -2.0171    5.0170   52.7701 C.3     1  ZINC001064463188    0.0400
      2 O2         -3.2075    4.2269   52.7472 O.3     1  ZINC001064463188   -0.3000
      3 C3         -3.4735    3.5480   51.6048 C.ar    1  ZINC001064463188    0.3900
      4 C4         -4.7860    3.4020   51.1587 C.ar    1  ZINC001064463188   -0.2800
      5 C5         -5.0110    2.7018   49.9883 C.ar    1  ZINC001064463188    0.2000
      6 N6         -3.9806    2.1936   49.3296 N.ar    1  ZINC001064463188   -0.5800
      7 C7         -2.7435    2.3484   49.7779 C.ar    1  ZINC001064463188    0.5300
      8 N8         -1.6926    1.8031   49.0612 N.3     1  ZINC001064463188   -0.4500
      9 C9         -1.8252    0.3515   48.9602 C.3     1  ZINC001064463188    0.0700
     10 C10        -0.4713   -0.3217   49.2149 C.3     1  ZINC001064463188   -0.1200
     11 C11         0.5305   -0.0181   48.1173 C.3     1  ZINC001064463188    0.1400
     12 H12         1.4950   -0.4636   48.3612 H       1  ZINC001064463188    0.0900
     13 C13         0.0494   -0.5286   46.7576 C.3     1  ZINC001064463188   -0.1300
     14 C14        -0.7532    0.6474   46.1737 C.3     1  ZINC001064463188   -0.1300
     15 C15        -0.3406    1.8676   47.0042 C.3     1  ZINC001064463188    0.1200
     16 H16         0.0897    2.6276   46.3520 H       1  ZINC001064463188    0.0900
     17 C17        -1.5631    2.4511   47.7294 C.3     1  ZINC001064463188    0.0600
     18 N18         0.6641    1.4655   48.0247 N.am    1  ZINC001064463188   -0.6000
     19 C19         1.5022    2.2694   48.7087 C.2     1  ZINC001064463188    0.5800
     20 O20         1.4866    3.4699   48.5148 O.2     1  ZINC001064463188   -0.5400
     21 C21         2.4358    1.6949   49.6896 C.2     1  ZINC001064463188   -0.2200
     22 C22         2.3802    2.0756   50.9626 C.2     1  ZINC001064463188    0.0000
     23 C23         3.3367    1.4870   51.9675 C.3     1  ZINC001064463188   -0.1300
     24 C24         1.3609    3.0956   51.4003 C.3     1  ZINC001064463188   -0.1200
     25 C25         1.6718    3.9105   52.6574 C.3     1  ZINC001064463188   -0.1900
     26 C26         1.7424    4.5723   51.2797 C.3     1  ZINC001064463188   -0.1600
     27 N27        -2.4871    3.0175   50.8920 N.ar    1  ZINC001064463188   -0.5900
     28 H28        -2.0669    5.7721   51.9855 H       1  ZINC001064463188    0.0600
     29 H29        -1.9242    5.5062   53.7397 H       1  ZINC001064463188    0.1000
     30 H30        -1.1519    4.3755   52.6024 H       1  ZINC001064463188    0.0600
     31 H31        -5.6087    3.8262   51.7152 H       1  ZINC001064463188    0.1500
     32 H32        -6.0160    2.5701   49.6154 H       1  ZINC001064463188    0.1800
     33 H33        -2.5469    0.0025   49.6987 H       1  ZINC001064463188    0.0800
     34 H34        -2.1770    0.0894   47.9624 H       1  ZINC001064463188    0.0600
     35 H35        -0.0731    0.0320   50.1659 H       1  ZINC001064463188    0.0800
     36 H36        -0.6174   -1.4003   49.2730 H       1  ZINC001064463188    0.0800
     37 H37         0.8987   -0.7659   46.1170 H       1  ZINC001064463188    0.0800
     38 H38        -0.5906   -1.4020   46.8829 H       1  ZINC001064463188    0.0900
     39 H39        -0.4945    0.7984   45.1256 H       1  ZINC001064463188    0.0800
     40 H40        -1.8226    0.4637   46.2772 H       1  ZINC001064463188    0.0800
     41 H41        -2.4636    2.2451   47.1510 H       1  ZINC001064463188    0.0700
     42 H42        -1.4394    3.5279   47.8449 H       1  ZINC001064463188    0.0900
     43 H43         3.1663    0.9638   49.3759 H       1  ZINC001064463188    0.1200
     44 H44         4.2375    2.0990   52.0136 H       1  ZINC001064463188    0.0800
     45 H45         2.8632    1.4629   52.9490 H       1  ZINC001064463188    0.0800
     46 H46         3.6012    0.4732   51.6668 H       1  ZINC001064463188    0.0700
     47 H47         0.3200    2.8281   51.2181 H       1  ZINC001064463188    0.1400
     48 H48         0.8353    4.1792   53.3025 H       1  ZINC001064463188    0.1000
     49 H49         2.6135    3.7089   53.1677 H       1  ZINC001064463188    0.1000
     50 H50         2.7306    4.8061   50.8838 H       1  ZINC001064463188    0.0900
     51 H51         0.9525    5.2765   51.0186 H       1  ZINC001064463188    0.1000
@<TRIPOS>BOND
     1     1     2    1
     2     1    28    1
     3     1    29    1
     4     1    30    1
     5     2     3    1
     6     3    27   ar
     7     3     4   ar
     8     4     5   ar
     9     4    31    1
    10     5     6   ar
    11     5    32    1
    12     6     7   ar
    13     7     8    1
    14     7    27   ar
    15     8    17    1
    16     8     9    1
    17     9    10    1
    18     9    33    1
    19     9    34    1
    20    10    11    1
    21    10    35    1
    22    10    36    1
    23    11    12    1
    24    11    18    1
    25    11    13    1
    26    13    14    1
    27    13    37    1
    28    13    38    1
    29    14    15    1
    30    14    39    1
    31    14    40    1
    32    15    16    1
    33    15    17    1
    34    15    18    1
    35    17    41    1
    36    17    42    1
    37    18    19   am
    38    19    20    2
    39    19    21    1
    40    21    22    2
    41    21    43    1
    42    22    23    1
    43    22    24    1
    44    23    44    1
    45    23    45    1
    46    23    46    1
    47    24    26    1
    48    24    25    1
    49    24    47    1
    50    25    26    1
    51    25    48    1
    52    25    49    1
    53    26    50    1
    54    26    51    1
@<TRIPOS>SUBSTRUCTURE
     1 ZINC001064463188        1 TEMP              0 ****  ****    0 ROOT


##########                                Name:    ZINC000004313955
##########                DOCK_Rotatable_Bonds:                   6
##########                         Heavy_Atoms:                  26
##########                    Molecular_Weight:             414.358
##########                DOCK_Rotatable_Bonds:                   6
##########                       Formal_Charge:           0.0299997
##########                     HBond_Acceptors:                   9
##########                        HBond_Donors:                   2
##########                         Heavy_Atoms:                  26
##########                          Grid_Score:          -28.640675
##########                     Grid_vdw_energy:          -27.943640
##########                      Grid_es_energy:           -0.697034
##########           Internal_energy_repulsive:           14.377107

@<TRIPOS>MOLECULE
ZINC000004313955
 47 49 1 0 0
SMALL
USER_CHARGES


@<TRIPOS>ATOM
      1 C1         -6.3026    6.3945   57.4924 C.3     1  ZINC000004313955   -0.1500
      2 C2         -6.1483    5.8431   56.0735 C.3     1  ZINC000004313955   -0.1100
      3 H3         -6.0812    6.6703   55.3670 H       1  ZINC000004313955    0.0800
      4 C4         -7.3598    4.9739   55.7287 C.3     1  ZINC000004313955   -0.1100
      5 C5         -7.2222    4.4485   54.2980 C.3     1  ZINC000004313955   -0.1100
      6 H6         -8.0966    3.8487   54.0450 H       1  ZINC000004313955    0.0900
      7 C7         -7.1142    5.6278   53.3291 C.3     1  ZINC000004313955   -0.1500
      8 C8         -5.9619    3.5839   54.1947 C.3     1  ZINC000004313955    0.1200
      9 N9         -4.8109    4.3680   54.6629 N.am    1  ZINC000004313955   -0.6000
     10 C10        -3.7166    4.5105   53.8891 C.2     1  ZINC000004313955    0.5400
     11 O11        -2.7737    5.1616   54.2864 O.2     1  ZINC000004313955   -0.5300
     12 C12        -3.6649    3.8610   52.5302 C.3     1  ZINC000004313955   -0.1400
     13 S13        -1.9502    3.4473   52.1242 S.3     1  ZINC000004313955    0.0800
     14 C14        -2.1726    2.7680   50.5137 C.2     1  ZINC000004313955    0.1100
     15 N15        -3.3177    2.5908   49.8936 N.2     1  ZINC000004313955   -0.2800
     16 N16        -3.1166    2.0736   48.7345 N.2     1  ZINC000004313955   -0.2400
     17 C17        -1.8310    1.8889   48.5431 C.2     1  ZINC000004313955    0.2500
     18 C18        -1.1957    1.3170   47.3371 C.ar    1  ZINC000004313955   -0.0100
     19 C19        -0.8618    2.1426   46.2627 C.ar    1  ZINC000004313955   -0.0700
     20 C20        -0.2692    1.6032   45.1398 C.ar    1  ZINC000004313955   -0.1100
     21 C21        -0.0054    0.2454   45.0766 C.ar    1  ZINC000004313955   -0.0100
     22 Cl22        0.7401   -0.4252   43.6595 Cl      1  ZINC000004313955   -0.0500
     23 C23        -0.3335   -0.5798   46.1390 C.ar    1  ZINC000004313955   -0.1100
     24 C24        -0.9217   -0.0513   47.2706 C.ar    1  ZINC000004313955    0.0100
     25 Cl25       -1.3327   -1.0868   48.6020 Cl      1  ZINC000004313955   -0.0100
     26 N26        -1.1865    2.3330   49.6745 N.pl3   1  ZINC000004313955   -0.3000
     27 N27         0.1587    2.3317   49.9123 N.3     1  ZINC000004313955   -0.5800
     28 C28        -4.8753    4.9950   55.9902 C.3     1  ZINC000004313955    0.1100
     29 H29        -5.4390    7.0125   57.7379 H       1  ZINC000004313955    0.0600
     30 H30        -7.2091    6.9968   57.5514 H       1  ZINC000004313955    0.0600
     31 H31        -6.3697    5.5668   58.1985 H       1  ZINC000004313955    0.0600
     32 H32        -7.4125    4.1334   56.4208 H       1  ZINC000004313955    0.0700
     33 H33        -8.2691    5.5693   55.8112 H       1  ZINC000004313955    0.0700
     34 H34        -6.2391    6.2266   53.5818 H       1  ZINC000004313955    0.0600
     35 H35        -7.0163    5.2531   52.3103 H       1  ZINC000004313955    0.0600
     36 H36        -8.0103    6.2437   53.4052 H       1  ZINC000004313955    0.0600
     37 H37        -6.0761    2.6958   54.8161 H       1  ZINC000004313955    0.0700
     38 H38        -5.8052    3.2888   53.1572 H       1  ZINC000004313955    0.1000
     39 H39        -4.2658    2.9516   52.5392 H       1  ZINC000004313955    0.1300
     40 H40        -4.0593    4.5498   51.7831 H       1  ZINC000004313955    0.1300
     41 H41        -1.0674    3.2018   46.3101 H       1  ZINC000004313955    0.1600
     42 H42        -0.0105    2.2416   44.3078 H       1  ZINC000004313955    0.1500
     43 H43        -0.1254   -1.6381   46.0839 H       1  ZINC000004313955    0.1500
     44 H44         0.5961    1.5161   49.5103 H       1  ZINC000004313955    0.3700
     45 H45         0.5874    3.1781   49.5691 H       1  ZINC000004313955    0.3800
     46 H46        -4.0018    5.6301   56.1370 H       1  ZINC000004313955    0.0900
     47 H47        -4.9010    4.2222   56.7585 H       1  ZINC000004313955    0.0800
@<TRIPOS>BOND
     1     1     2    1
     2     1    29    1
     3     1    30    1
     4     1    31    1
     5     2     3    1
     6     2    28    1
     7     2     4    1
     8     4     5    1
     9     4    32    1
    10     4    33    1
    11     5     6    1
    12     5     7    1
    13     5     8    1
    14     7    34    1
    15     7    35    1
    16     7    36    1
    17     8     9    1
    18     8    37    1
    19     8    38    1
    20     9    10   am
    21     9    28    1
    22    10    11    2
    23    10    12    1
    24    12    13    1
    25    12    39    1
    26    12    40    1
    27    13    14    1
    28    14    26    1
    29    14    15    2
    30    15    16    1
    31    16    17    2
    32    17    18    1
    33    17    26    1
    34    18    24   ar
    35    18    19   ar
    36    19    20   ar
    37    19    41    1
    38    20    21   ar
    39    20    42    1
    40    21    22    1
    41    21    23   ar
    42    23    24   ar
    43    23    43    1
    44    24    25    1
    45    26    27    1
    46    27    44    1
    47    27    45    1
    48    28    46    1
    49    28    47    1
@<TRIPOS>SUBSTRUCTURE
     1 ZINC000004313955        1 TEMP              0 ****  ****    0 ROOT


##########                                Name:    ZINC000190927708
##########                DOCK_Rotatable_Bonds:                  10
##########                         Heavy_Atoms:                  26
##########                    Molecular_Weight:             358.437
##########                DOCK_Rotatable_Bonds:                  10
##########                       Formal_Charge:           0.0499998
##########                     HBond_Acceptors:                   6
##########                        HBond_Donors:                   1
##########                         Heavy_Atoms:                  26
##########                          Grid_Score:          -28.636641
##########                     Grid_vdw_energy:          -27.350103
##########                      Grid_es_energy:           -1.286538
##########           Internal_energy_repulsive:           27.128294

@<TRIPOS>MOLECULE
ZINC000190927708
 52 53 1 0 0
SMALL
USER_CHARGES


@<TRIPOS>ATOM
      1 C1          0.4901    3.7917   44.7980 C.3     1  ZINC000190927708   -0.1500
      2 C2         -0.2575    3.4176   46.0795 C.3     1  ZINC000190927708   -0.1500
      3 C3         -0.7490    1.9722   45.9798 C.3     1  ZINC000190927708    0.1000
      4 N4         -0.9534    1.4319   47.3260 N.am    1  ZINC000190927708   -0.5900
      5 C5         -2.0430    1.7860   48.0360 C.2     1  ZINC000190927708    0.5300
      6 O6         -2.8534    2.5529   47.5608 O.2     1  ZINC000190927708   -0.5300
      7 C7         -2.2542    1.2289   49.4202 C.3     1  ZINC000190927708   -0.0800
      8 C8         -3.2001    2.1211   50.1819 C.2     1  ZINC000190927708   -0.1700
      9 C9         -4.5087    1.7823   50.2899 C.2     1  ZINC000190927708    0.0000
     10 C10        -5.4015    2.6703   51.0369 C.ar    1  ZINC000190927708   -0.1300
     11 C11        -6.7602    2.3736   51.1835 C.ar    1  ZINC000190927708   -0.0500
     12 C12        -7.5667    3.2226   51.8877 C.ar    1  ZINC000190927708   -0.1500
     13 C13        -7.0495    4.3769   52.4588 C.ar    1  ZINC000190927708   -0.0600
     14 C14        -5.7135    4.6896   52.3268 C.ar    1  ZINC000190927708   -0.1600
     15 C15        -4.8732    3.8403   51.6150 C.ar    1  ZINC000190927708    0.1900
     16 N16        -3.5329    4.1280   51.4676 N.am    1  ZINC000190927708   -0.6300
     17 C17        -2.7196    3.3031   50.7850 C.2     1  ZINC000190927708    0.5500
     18 O18        -1.5399    3.5892   50.6747 O.2     1  ZINC000190927708   -0.5300
     19 C19         0.0265    0.5069   47.9008 C.3     1  ZINC000190927708    0.1500
     20 H20        -0.4702   -0.1526   48.6125 H       1  ZINC000190927708    0.1400
     21 C21         1.1186    1.3022   48.6188 C.3     1  ZINC000190927708   -0.1300
     22 C22         1.8287    0.3975   49.6278 C.3     1  ZINC000190927708   -0.1500
     23 C23         0.6455   -0.3164   46.8008 C.2     1  ZINC000190927708    0.4500
     24 O24        -0.0573   -0.9707   46.0674 O.2     1  ZINC000190927708   -0.5000
     25 O25         1.9775   -0.3228   46.6357 O.3     1  ZINC000190927708   -0.3500
     26 C26         2.5270    0.6144   45.6724 C.3     1  ZINC000190927708    0.0600
     27 C27         4.0486    0.4624   45.6235 C.3     1  ZINC000190927708   -0.1500
     28 H28        -0.1807    3.6940   43.9444 H       1  ZINC000190927708    0.0600
     29 H29         0.8402    4.8214   44.8691 H       1  ZINC000190927708    0.0600
     30 H30         1.3433    3.1260   44.6676 H       1  ZINC000190927708    0.0600
     31 H31         0.4133    3.5152   46.9331 H       1  ZINC000190927708    0.0800
     32 H32        -1.1107    4.0833   46.2099 H       1  ZINC000190927708    0.0700
     33 H33        -1.6903    1.9455   45.4307 H       1  ZINC000190927708    0.0900
     34 H34        -0.0057    1.3710   45.4561 H       1  ZINC000190927708    0.0900
     35 H35        -2.6781    0.2273   49.3480 H       1  ZINC000190927708    0.1100
     36 H36        -1.2987    1.1821   49.9427 H       1  ZINC000190927708    0.1200
     37 H37        -4.8840    0.8778   49.8347 H       1  ZINC000190927708    0.1400
     38 H38        -7.1704    1.4775   50.7418 H       1  ZINC000190927708    0.1400
     39 H39        -8.6162    2.9934   52.0004 H       1  ZINC000190927708    0.1300
     40 H40        -7.7007    5.0373   53.0123 H       1  ZINC000190927708    0.1300
     41 H41        -5.3207    5.5902   52.7751 H       1  ZINC000190927708    0.1300
     42 H42        -3.1707    4.9350   51.8656 H       1  ZINC000190927708    0.4200
     43 H43         1.8402    1.6692   47.8889 H       1  ZINC000190927708    0.0900
     44 H44         0.6691    2.1466   49.1414 H       1  ZINC000190927708    0.0800
     45 H45         2.6067    0.9642   50.1394 H       1  ZINC000190927708    0.0600
     46 H46         1.1071    0.0305   50.3576 H       1  ZINC000190927708    0.0600
     47 H47         2.2782   -0.4468   49.1051 H       1  ZINC000190927708    0.0600
     48 H48         2.1094    0.4090   44.6867 H       1  ZINC000190927708    0.0700
     49 H49         2.2728    1.6319   45.9697 H       1  ZINC000190927708    0.0700
     50 H50         4.4661    0.6679   46.6092 H       1  ZINC000190927708    0.0700
     51 H51         4.3028   -0.5550   45.3262 H       1  ZINC000190927708    0.0700
     52 H52         4.4610    1.1661   44.9004 H       1  ZINC000190927708    0.0800
@<TRIPOS>BOND
     1     1     2    1
     2     1    28    1
     3     1    29    1
     4     1    30    1
     5     2     3    1
     6     2    31    1
     7     2    32    1
     8     3     4    1
     9     3    33    1
    10     3    34    1
    11     4     5   am
    12     4    19    1
    13     5     6    2
    14     5     7    1
    15     7     8    1
    16     7    35    1
    17     7    36    1
    18     8    17    1
    19     8     9    2
    20     9    10    1
    21     9    37    1
    22    10    15   ar
    23    10    11   ar
    24    11    12   ar
    25    11    38    1
    26    12    13   ar
    27    12    39    1
    28    13    14   ar
    29    13    40    1
    30    14    15   ar
    31    14    41    1
    32    15    16    1
    33    16    17   am
    34    16    42    1
    35    17    18    2
    36    19    20    1
    37    19    21    1
    38    19    23    1
    39    21    22    1
    40    21    43    1
    41    21    44    1
    42    22    45    1
    43    22    46    1
    44    22    47    1
    45    23    24    2
    46    23    25    1
    47    25    26    1
    48    26    27    1
    49    26    48    1
    50    26    49    1
    51    27    50    1
    52    27    51    1
    53    27    52    1
@<TRIPOS>SUBSTRUCTURE
     1 ZINC000190927708        1 TEMP              0 ****  ****    0 ROOT


##########                                Name:    ZINC001139743874
##########                DOCK_Rotatable_Bonds:                   5
##########                         Heavy_Atoms:                  28
##########                    Molecular_Weight:             382.506
##########                DOCK_Rotatable_Bonds:                   5
##########                       Formal_Charge:           0.0199992
##########                     HBond_Acceptors:                   6
##########                        HBond_Donors:                   0
##########                         Heavy_Atoms:                  28
##########                          Grid_Score:          -28.606991
##########                     Grid_vdw_energy:          -28.183626
##########                      Grid_es_energy:           -0.423365
##########           Internal_energy_repulsive:           39.041428

@<TRIPOS>MOLECULE
ZINC001139743874
 58 61 1 0 0
SMALL
USER_CHARGES


@<TRIPOS>ATOM
      1 C1        -11.4370    0.7628   53.9866 C.3     1  ZINC001139743874   -0.1800
      2 C2        -10.6714    2.0852   54.0653 C.3     1  ZINC001139743874    0.1400
      3 C3        -11.4749    3.1822   53.3641 C.3     1  ZINC001139743874   -0.1800
      4 C4        -10.4605    2.4658   55.5321 C.3     1  ZINC001139743874   -0.1400
      5 O5         -9.3824    1.9377   53.4134 O.3     1  ZINC001139743874   -0.3600
      6 C6         -8.5800    3.0186   53.3938 C.2     1  ZINC001139743874    0.6500
      7 O7         -9.0198    4.1074   53.7064 O.2     1  ZINC001139743874   -0.5700
      8 N8         -7.2891    2.8932   53.0274 N.am    1  ZINC001139743874   -0.5900
      9 C9         -6.4238    4.0296   53.0010 C.3     1  ZINC001139743874    0.1000
     10 C10        -6.4429    4.8626   51.6878 C.3     1  ZINC001139743874   -0.1300
     11 C11        -6.5157    3.8984   50.4685 C.3     1  ZINC001139743874   -0.0900
     12 C12        -5.6844    2.6753   50.6771 C.3     1  ZINC001139743874   -0.0800
     13 C13        -4.7807    2.2739   49.5053 C.3     1  ZINC001139743874    0.0100
     14 N14        -3.7260    3.0583   50.1875 N.3     1  ZINC001139743874   -0.4700
     15 C15        -2.4391    2.3506   50.1542 C.3     1  ZINC001139743874    0.0600
     16 C16        -1.8119    2.5123   48.7936 C.ar    1  ZINC001139743874   -0.1200
     17 C17        -2.0038    1.5364   47.8175 C.ar    1  ZINC001139743874    0.1500
     18 N18        -1.4732    1.6447   46.6234 N.ar    1  ZINC001139743874   -0.4600
     19 C19        -0.7244    2.6985   46.2903 C.ar    1  ZINC001139743874    0.0800
     20 C20        -0.1559    2.8122   45.0057 C.ar    1  ZINC001139743874   -0.0400
     21 C21         0.5994    3.9150   44.7291 C.ar    1  ZINC001139743874   -0.1600
     22 C22         0.7915    4.8912   45.7055 C.ar    1  ZINC001139743874    0.1300
     23 N23         0.2614    4.7827   46.8995 N.ar    1  ZINC001139743874   -0.4700
     24 C24        -0.4878    3.7288   47.2327 C.ar    1  ZINC001139743874    0.0800
     25 C25        -1.0604    3.6177   48.5152 C.ar    1  ZINC001139743874   -0.0400
     26 C26        -4.4009    2.8714   51.4923 C.3     1  ZINC001139743874    0.0000
     27 C27        -6.5688    1.5339   51.1882 C.3     1  ZINC001139743874   -0.1300
     28 C28        -6.7284    1.5588   52.6450 C.3     1  ZINC001139743874    0.1400
     29 H29       -11.5873    0.4916   52.9416 H       1  ZINC001139743874    0.0900
     30 H30       -10.8645   -0.0187   54.4862 H       1  ZINC001139743874    0.0600
     31 H31       -12.4046    0.8735   54.4760 H       1  ZINC001139743874    0.0700
     32 H32       -12.4426    3.2930   53.8535 H       1  ZINC001139743874    0.0700
     33 H33       -10.9296    4.1243   53.4203 H       1  ZINC001139743874    0.0600
     34 H34       -11.6252    2.9110   52.3191 H       1  ZINC001139743874    0.0900
     35 H35        -9.8880    1.6843   56.0316 H       1  ZINC001139743874    0.0700
     36 H36        -9.9151    3.4079   55.5882 H       1  ZINC001139743874    0.0700
     37 H37       -11.4282    2.5766   56.0215 H       1  ZINC001139743874    0.0800
     38 H38        -6.6991    4.6869   53.8258 H       1  ZINC001139743874    0.0700
     39 H39        -5.4038    3.6854   53.1718 H       1  ZINC001139743874    0.0900
     40 H40        -7.3134    5.5185   51.6855 H       1  ZINC001139743874    0.0700
     41 H41        -5.5347    5.4620   51.6240 H       1  ZINC001139743874    0.0800
     42 H42        -7.5526    3.6006   50.3129 H       1  ZINC001139743874    0.0600
     43 H43        -6.1609    4.4216   49.5805 H       1  ZINC001139743874    0.0700
     44 H44        -4.5721    1.2052   49.4567 H       1  ZINC001139743874    0.0700
     45 H45        -5.0902    2.6926   48.5476 H       1  ZINC001139743874    0.0900
     46 H46        -1.7756    2.7674   50.9120 H       1  ZINC001139743874    0.0600
     47 H47        -2.6014    1.2918   50.3560 H       1  ZINC001139743874    0.0900
     48 H48        -2.6041    0.6694   48.0505 H       1  ZINC001139743874    0.1700
     49 H49        -0.3134    2.0470   44.2600 H       1  ZINC001139743874    0.1500
     50 H50         1.0485    4.0312   43.7538 H       1  ZINC001139743874    0.1500
     51 H51         1.3921    5.7581   45.4726 H       1  ZINC001139743874    0.1700
     52 H52        -0.9058    4.3847   49.2596 H       1  ZINC001139743874    0.1400
     53 H53        -4.4082    3.7655   52.1158 H       1  ZINC001139743874    0.1000
     54 H54        -4.0804    1.9787   52.0294 H       1  ZINC001139743874    0.0700
     55 H55        -7.5512    1.6131   50.7227 H       1  ZINC001139743874    0.0700
     56 H56        -6.1196    0.5835   50.9001 H       1  ZINC001139743874    0.0800
     57 H57        -5.7599    1.4116   53.1232 H       1  ZINC001139743874    0.0800
     58 H58        -7.4141    0.7695   52.9529 H       1  ZINC001139743874    0.1000
@<TRIPOS>BOND
     1     1     2    1
     2     1    29    1
     3     1    30    1
     4     1    31    1
     5     2     3    1
     6     2     4    1
     7     2     5    1
     8     3    32    1
     9     3    33    1
    10     3    34    1
    11     4    35    1
    12     4    36    1
    13     4    37    1
    14     5     6    1
    15     6     7    2
    16     6     8   am
    17     8    28    1
    18     8     9    1
    19     9    10    1
    20     9    38    1
    21     9    39    1
    22    10    11    1
    23    10    40    1
    24    10    41    1
    25    11    12    1
    26    11    42    1
    27    11    43    1
    28    12    26    1
    29    12    13    1
    30    12    27    1
    31    13    14    1
    32    13    44    1
    33    13    45    1
    34    14    15    1
    35    14    26    1
    36    15    16    1
    37    15    46    1
    38    15    47    1
    39    16    25   ar
    40    16    17   ar
    41    17    18   ar
    42    17    48    1
    43    18    19   ar
    44    19    24   ar
    45    19    20   ar
    46    20    21   ar
    47    20    49    1
    48    21    22   ar
    49    21    50    1
    50    22    23   ar
    51    22    51    1
    52    23    24   ar
    53    24    25   ar
    54    25    52    1
    55    26    53    1
    56    26    54    1
    57    27    28    1
    58    27    55    1
    59    27    56    1
    60    28    57    1
    61    28    58    1
@<TRIPOS>SUBSTRUCTURE
     1 ZINC001139743874        1 TEMP              0 ****  ****    0 ROOT


##########                                Name:    ZINC000286156371
##########                DOCK_Rotatable_Bonds:                   7
##########                         Heavy_Atoms:                  25
##########                    Molecular_Weight:             350.418
##########                DOCK_Rotatable_Bonds:                   7
##########                       Formal_Charge:          0.00999908
##########                     HBond_Acceptors:                   8
##########                        HBond_Donors:                   2
##########                         Heavy_Atoms:                  25
##########                          Grid_Score:          -28.604595
##########                     Grid_vdw_energy:          -28.435354
##########                      Grid_es_energy:           -0.169240
##########           Internal_energy_repulsive:           36.738972

@<TRIPOS>MOLECULE
ZINC000286156371
 51 53 1 0 0
SMALL
USER_CHARGES


@<TRIPOS>ATOM
      1 C1         -1.9510    5.2964   55.5154 C.3     1  <0>        -0.1800
      2 C2         -2.4514    5.3395   54.0701 C.3     1  <0>         0.1400
      3 C3         -2.8997    6.7616   53.7278 C.3     1  <0>        -0.1800
      4 C4         -1.3223    4.9197   53.1269 C.3     1  <0>        -0.1400
      5 O5         -3.5723    4.4290   53.9188 O.3     1  <0>        -0.3600
      6 C6         -4.1322    4.3466   52.6972 C.2     1  <0>         0.6800
      7 O7         -3.6961    5.0173   51.7825 O.2     1  <0>        -0.5600
      8 N8         -5.1764    3.5204   52.4887 N.am    1  <0>        -0.5800
      9 C9         -5.8026    2.6542   53.5041 C.3     1  <0>         0.0700
     10 C10        -7.2446    2.4183   52.9894 C.3     1  <0>         0.0900
     11 H11        -7.6531    1.4882   53.3844 H       1  <0>         0.0900
     12 O12        -8.0907    3.5239   53.3115 O.3     1  <0>        -0.5500
     13 C13        -7.0162    2.3193   51.4579 C.3     1  <0>        -0.1200
     14 C14        -5.8837    3.3384   51.2127 C.3     1  <0>         0.1500
     15 H15        -6.3043    4.2865   50.8778 H       1  <0>         0.1100
     16 C16        -4.9305    2.8054   50.1743 C.2     1  <0>         0.5200
     17 O17        -5.1414    3.0072   48.9970 O.2     1  <0>        -0.4900
     18 N18        -3.8438    2.1043   50.5537 N.am    1  <0>        -0.6300
     19 C19        -2.9563    1.6100   49.5880 C.2     1  <0>         0.3000
     20 N20        -2.4470    0.3992   49.5564 N.2     1  <0>        -0.3200
     21 N21        -1.6147    0.3076   48.4385 N.pl3   1  <0>        -0.3600
     22 C22        -0.8371   -0.8549   47.9988 C.3     1  <0>         0.1400
     23 C23        -0.4342   -0.6541   46.5342 C.3     1  <0>        -0.1400
     24 C24         0.2086    0.7255   46.3638 C.3     1  <0>        -0.1300
     25 C25        -0.8647    1.8074   46.5415 C.3     1  <0>        -0.0600
     26 C26        -1.6387    1.5006   47.7999 C.2     1  <0>         0.0900
     27 C27        -2.4611    2.3214   48.4813 C.2     1  <0>        -0.2600
     28 H28        -2.7553    5.5955   56.1875 H       1  <0>         0.0900
     29 H29        -1.6316    4.2832   55.7592 H       1  <0>         0.0600
     30 H30        -1.1095    5.9798   55.6291 H       1  <0>         0.0700
     31 H31        -2.0583    7.4451   53.8415 H       1  <0>         0.0700
     32 H32        -3.2561    6.7924   52.6982 H       1  <0>         0.0600
     33 H33        -3.7041    7.0608   54.3999 H       1  <0>         0.0900
     34 H34        -1.0029    3.9064   53.3707 H       1  <0>         0.0700
     35 H35        -1.6788    4.9503   52.0973 H       1  <0>         0.0700
     36 H36        -0.4808    5.6032   53.2405 H       1  <0>         0.0800
     37 H37        -5.2667    1.7079   53.5782 H       1  <0>         0.0800
     38 H38        -5.8226    3.1566   54.4713 H       1  <0>         0.0900
     39 H39        -7.7961    4.3662   52.9387 H       1  <0>         0.3900
     40 H40        -6.7020    1.3135   51.1790 H       1  <0>         0.1000
     41 H41        -7.9160    2.6079   50.9144 H       1  <0>         0.1100
     42 H42        -3.6757    1.9419   51.4952 H       1  <0>         0.4200
     43 H43         0.0576   -0.9498   48.6142 H       1  <0>         0.0800
     44 H44        -1.4435   -1.7560   48.0908 H       1  <0>         0.0900
     45 H45         0.2797   -1.4254   46.2449 H       1  <0>         0.0900
     46 H46        -1.3191   -0.7230   45.9014 H       1  <0>         0.0800
     47 H47         0.9882    0.8591   47.1138 H       1  <0>         0.0700
     48 H48         0.6434    0.8042   45.3674 H       1  <0>         0.0800
     49 H49        -0.3905    2.7848   46.6305 H       1  <0>         0.0900
     50 H50        -1.5384    1.8014   45.6847 H       1  <0>         0.0900
     51 H51        -2.6960    3.3438   48.2246 H       1  <0>         0.1700
@<TRIPOS>BOND
     1     1     2    1
     2     1    28    1
     3     1    29    1
     4     1    30    1
     5     2     3    1
     6     2     4    1
     7     2     5    1
     8     3    31    1
     9     3    32    1
    10     3    33    1
    11     4    34    1
    12     4    35    1
    13     4    36    1
    14     5     6    1
    15     6     7    2
    16     6     8   am
    17     8    14    1
    18     8     9    1
    19     9    10    1
    20     9    37    1
    21     9    38    1
    22    10    11    1
    23    10    12    1
    24    10    13    1
    25    12    39    1
    26    13    14    1
    27    13    40    1
    28    13    41    1
    29    14    15    1
    30    14    16    1
    31    16    17    2
    32    16    18   am
    33    18    19    1
    34    18    42    1
    35    19    27    1
    36    19    20    2
    37    20    21    1
    38    21    26    1
    39    21    22    1
    40    22    23    1
    41    22    43    1
    42    22    44    1
    43    23    24    1
    44    23    45    1
    45    23    46    1
    46    24    25    1
    47    24    47    1
    48    24    48    1
    49    25    26    1
    50    25    49    1
    51    25    50    1
    52    26    27    2
    53    27    51    1
@<TRIPOS>SUBSTRUCTURE
     1 <0>         1 TEMP              0 ****  ****    0 ROOT


##########                                Name:    ZINC000545381384
##########                DOCK_Rotatable_Bonds:                   6
##########                         Heavy_Atoms:                  30
##########                    Molecular_Weight:             405.543
##########                DOCK_Rotatable_Bonds:                   6
##########                       Formal_Charge:                0.05
##########                     HBond_Acceptors:                   6
##########                        HBond_Donors:                   1
##########                         Heavy_Atoms:                  30
##########                          Grid_Score:          -28.586067
##########                     Grid_vdw_energy:          -28.050871
##########                      Grid_es_energy:           -0.535197
##########           Internal_energy_repulsive:           16.614302

@<TRIPOS>MOLECULE
ZINC000545381384
 61 64 1 0 0
SMALL
USER_CHARGES


@<TRIPOS>ATOM
      1 C1         -9.8467   -1.3352   60.3621 C.3     1  ZINC000545381384   -0.2000
      2 C2         -9.7387   -1.8036   58.9096 C.3     1  ZINC000545381384    0.0500
      3 N3        -11.0253   -1.5967   58.2314 N.3     1  ZINC000545381384   -0.5300
      4 C4        -11.8598   -2.8063   58.3034 C.3     1  ZINC000545381384    0.0500
      5 C5        -13.2941   -2.4311   57.9318 C.3     1  ZINC000545381384   -0.0700
      6 C6        -13.3061   -1.6702   56.6277 C.ar    1  ZINC000545381384    0.1800
      7 C7        -12.1469   -1.0942   56.1215 C.ar    1  ZINC000545381384   -0.0800
      8 C8        -10.8248   -1.2017   56.8335 C.3     1  ZINC000545381384    0.0900
      9 C9        -12.1936   -0.3950   54.9179 C.ar    1  ZINC000545381384   -0.0700
     10 C10       -10.9783    0.2317   54.3555 C.2     1  ZINC000545381384    0.5800
     11 O11       -10.3007   -0.3733   53.5478 O.2     1  ZINC000545381384   -0.4800
     12 N12       -10.6218    1.4736   54.7386 N.am    1  ZINC000545381384   -0.6400
     13 C13        -9.4773    2.0650   54.2074 C.2     1  ZINC000545381384    0.3000
     14 C14        -9.2700    2.3879   52.9009 C.2     1  ZINC000545381384   -0.2700
     15 C15        -7.9990    2.9589   52.7972 C.2     1  ZINC000545381384    0.1000
     16 C16        -7.3605    3.4630   51.5287 C.3     1  ZINC000545381384   -0.0300
     17 C17        -6.1536    2.5886   51.1827 C.3     1  ZINC000545381384   -0.0600
     18 C18        -5.7654    2.8110   49.7196 C.3     1  ZINC000545381384   -0.1500
     19 C19        -4.9766    2.9636   52.0854 C.3     1  ZINC000545381384   -0.1400
     20 C20        -6.5121    1.1167   51.3972 C.3     1  ZINC000545381384   -0.1400
     21 N21        -7.4572    2.9821   53.9879 N.2     1  ZINC000545381384   -0.2700
     22 N22        -8.3669    2.4300   54.8988 N.pl3   1  ZINC000545381384   -0.3900
     23 C23        -8.1546    2.2674   56.3392 C.3     1  ZINC000545381384    0.1000
     24 C24       -13.4376   -0.3015   54.2474 C.ar    1  ZINC000545381384   -0.0700
     25 C25       -13.5664    0.3830   53.0323 C.ar    1  ZINC000545381384   -0.1100
     26 C26       -14.7824    0.4468   52.4205 C.ar    1  ZINC000545381384   -0.1000
     27 C27       -15.9004   -0.1604   52.9890 C.ar    1  ZINC000545381384   -0.1000
     28 C28       -15.8107   -0.8322   54.1687 C.ar    1  ZINC000545381384   -0.0900
     29 C29       -14.5716   -0.9199   54.8299 C.ar    1  ZINC000545381384    0.1400
     30 N30       -14.4524   -1.5705   55.9866 N.ar    1  ZINC000545381384   -0.4600
     31 H31       -10.1359   -0.2845   60.3845 H       1  ZINC000545381384    0.0600
     32 H32       -10.5985   -1.9301   60.8807 H       1  ZINC000545381384    0.0600
     33 H33        -8.8827   -1.4573   60.8560 H       1  ZINC000545381384    0.0700
     34 H34        -8.9633   -1.2315   58.4001 H       1  ZINC000545381384    0.0900
     35 H35        -9.4824   -2.8628   58.8875 H       1  ZINC000545381384    0.0800
     36 H36       -11.4838   -3.5527   57.6035 H       1  ZINC000545381384    0.0500
     37 H37       -11.8372   -3.2069   59.3169 H       1  ZINC000545381384    0.0900
     38 H38       -13.8899   -3.3379   57.8274 H       1  ZINC000545381384    0.1000
     39 H39       -13.7205   -1.8083   58.7182 H       1  ZINC000545381384    0.1000
     40 H40       -10.3186   -0.2369   56.8009 H       1  ZINC000545381384    0.0900
     41 H41       -10.2060   -1.9468   56.3335 H       1  ZINC000545381384    0.0700
     42 H42       -11.1618    1.9560   55.3841 H       1  ZINC000545381384    0.4100
     43 H43        -9.9645    2.2304   52.0890 H       1  ZINC000545381384    0.1700
     44 H44        -8.0850    3.4204   50.7155 H       1  ZINC000545381384    0.0800
     45 H45        -7.0340    4.4932   51.6708 H       1  ZINC000545381384    0.0800
     46 H46        -5.5100    3.8596   49.5668 H       1  ZINC000545381384    0.0500
     47 H47        -4.9055    2.1880   49.4731 H       1  ZINC000545381384    0.0500
     48 H48        -6.6039    2.5438   49.0764 H       1  ZINC000545381384    0.0800
     49 H49        -5.2532    2.8051   53.1277 H       1  ZINC000545381384    0.0600
     50 H50        -4.1168    2.3406   51.8389 H       1  ZINC000545381384    0.0600
     51 H51        -4.7212    4.0122   51.9326 H       1  ZINC000545381384    0.0600
     52 H52        -7.3506    0.8496   50.7540 H       1  ZINC000545381384    0.0500
     53 H53        -5.6523    0.4938   51.1507 H       1  ZINC000545381384    0.0500
     54 H54        -6.7887    0.9583   52.4395 H       1  ZINC000545381384    0.0500
     55 H55        -8.5027    3.1590   56.8608 H       1  ZINC000545381384    0.0800
     56 H56        -8.7110    1.3993   56.6927 H       1  ZINC000545381384    0.0800
     57 H57        -7.0924    2.1228   56.5359 H       1  ZINC000545381384    0.1000
     58 H58       -12.7069    0.8580   52.5827 H       1  ZINC000545381384    0.1300
     59 H59       -14.8809    0.9748   51.4835 H       1  ZINC000545381384    0.1300
     60 H60       -16.8535   -0.0964   52.4851 H       1  ZINC000545381384    0.1400
     61 H61       -16.6872   -1.2963   54.5961 H       1  ZINC000545381384    0.1400
@<TRIPOS>BOND
     1     1     2    1
     2     1    31    1
     3     1    32    1
     4     1    33    1
     5     2     3    1
     6     2    34    1
     7     2    35    1
     8     3     8    1
     9     3     4    1
    10     4     5    1
    11     4    36    1
    12     4    37    1
    13     5     6    1
    14     5    38    1
    15     5    39    1
    16     6    30   ar
    17     6     7   ar
    18     7     8    1
    19     7     9   ar
    20     8    40    1
    21     8    41    1
    22     9    10    1
    23     9    24   ar
    24    10    11    2
    25    10    12   am
    26    12    13    1
    27    12    42    1
    28    13    22    1
    29    13    14    2
    30    14    15    1
    31    14    43    1
    32    15    16    1
    33    15    21    2
    34    16    17    1
    35    16    44    1
    36    16    45    1
    37    17    18    1
    38    17    19    1
    39    17    20    1
    40    18    46    1
    41    18    47    1
    42    18    48    1
    43    19    49    1
    44    19    50    1
    45    19    51    1
    46    20    52    1
    47    20    53    1
    48    20    54    1
    49    21    22    1
    50    22    23    1
    51    23    55    1
    52    23    56    1
    53    23    57    1
    54    24    29   ar
    55    24    25   ar
    56    25    26   ar
    57    25    58    1
    58    26    27   ar
    59    26    59    1
    60    27    28   ar
    61    27    60    1
    62    28    29   ar
    63    28    61    1
    64    29    30   ar
@<TRIPOS>SUBSTRUCTURE
     1 ZINC000545381384        1 TEMP              0 ****  ****    0 ROOT


##########                                Name:    ZINC001386869844
##########                DOCK_Rotatable_Bonds:                   9
##########                         Heavy_Atoms:                  25
##########                    Molecular_Weight:             345.485
##########                DOCK_Rotatable_Bonds:                   9
##########                       Formal_Charge:          -0.0300003
##########                     HBond_Acceptors:                   5
##########                        HBond_Donors:                   2
##########                         Heavy_Atoms:                  25
##########                          Grid_Score:          -28.571726
##########                     Grid_vdw_energy:          -28.498417
##########                      Grid_es_energy:           -0.073308
##########           Internal_energy_repulsive:           26.528448

@<TRIPOS>MOLECULE
ZINC001386869844
 56 58 1 0 0
SMALL
USER_CHARGES


@<TRIPOS>ATOM
      1 C1         -6.2429    3.8996   51.1201 C.3     1  ZINC001386869844    0.0600
      2 N2         -6.2480    2.7834   52.0690 N.am    1  ZINC001386869844   -0.6200
      3 C3         -7.4012    2.5745   52.9478 C.3     1  ZINC001386869844    0.1100
      4 C4         -8.4100    1.6555   52.2558 C.3     1  ZINC001386869844    0.1000
      5 N5         -9.4212    1.2236   53.2239 N.am    1  ZINC001386869844   -0.7300
      6 C6        -10.0948    0.0729   53.0267 C.2     1  ZINC001386869844    0.5200
      7 O7         -9.8673   -0.6022   52.0453 O.2     1  ZINC001386869844   -0.5300
      8 C8        -11.1350   -0.3714   54.0225 C.3     1  ZINC001386869844   -0.1300
      9 C9        -12.5003    0.1879   53.6174 C.3     1  ZINC001386869844   -0.0100
     10 C10       -13.5734   -0.3491   54.5666 C.3     1  ZINC001386869844   -0.1500
     11 C11       -12.4690    1.7156   53.6948 C.3     1  ZINC001386869844   -0.1600
     12 C12       -12.8237   -0.2437   52.1856 C.3     1  ZINC001386869844   -0.1500
     13 C13       -12.8699    0.8460   51.1127 C.3     1  ZINC001386869844   -0.1900
     14 C14       -14.1673    0.1971   51.6013 C.3     1  ZINC001386869844   -0.1800
     15 C15        -5.1917    1.9488   52.1334 C.2     1  ZINC001386869844    0.5900
     16 O16        -5.1959    1.0217   52.9215 O.2     1  ZINC001386869844   -0.5200
     17 C17        -4.0370    2.1582   51.2534 C.2     1  ZINC001386869844   -0.0600
     18 C18        -2.9926    3.0340   51.4729 C.2     1  ZINC001386869844   -0.0900
     19 C19        -2.1232    2.9091   50.3924 C.2     1  ZINC001386869844   -0.1700
     20 C20        -2.6370    1.9792   49.5440 C.2     1  ZINC001386869844    0.0500
     21 C21        -1.9791    1.5678   48.2484 C.3     1  ZINC001386869844   -0.0600
     22 C22        -0.9359    2.6283   47.8770 C.3     1  ZINC001386869844   -0.1100
     23 C23        -0.0327    2.9018   49.0826 C.3     1  ZINC001386869844   -0.1200
     24 C24        -0.8296    3.6488   50.1590 C.3     1  ZINC001386869844   -0.0500
     25 N25        -3.7947    1.5119   50.0607 N.pl3   1  ZINC001386869844   -0.5400
     26 H26        -5.7095    4.7445   51.5559 H       1  ZINC001386869844    0.0600
     27 H27        -5.7462    3.5919   50.1999 H       1  ZINC001386869844    0.0800
     28 H28        -7.2690    4.1929   50.8986 H       1  ZINC001386869844    0.0900
     29 H29        -7.8720    3.5336   53.1637 H       1  ZINC001386869844    0.1000
     30 H30        -7.0700    2.1147   53.8789 H       1  ZINC001386869844    0.0900
     31 H31        -7.8926    0.7829   51.8573 H       1  ZINC001386869844    0.0700
     32 H32        -8.8936    2.1948   51.4414 H       1  ZINC001386869844    0.0700
     33 H33        -9.6060    1.7658   54.0067 H       1  ZINC001386869844    0.4000
     34 H34       -11.1791   -1.4603   54.0404 H       1  ZINC001386869844    0.0900
     35 H35       -10.8706   -0.0021   55.0133 H       1  ZINC001386869844    0.0900
     36 H36       -13.3430   -0.0417   55.5866 H       1  ZINC001386869844    0.0800
     37 H37       -14.5461    0.0493   54.2779 H       1  ZINC001386869844    0.0500
     38 H38       -13.5957   -1.4375   54.5115 H       1  ZINC001386869844    0.0500
     39 H39       -11.7046    2.0981   53.0187 H       1  ZINC001386869844    0.0500
     40 H40       -13.4417    2.1140   53.4062 H       1  ZINC001386869844    0.0500
     41 H41       -12.2387    2.0230   54.7148 H       1  ZINC001386869844    0.0800
     42 H42       -12.4444   -1.2226   51.8926 H       1  ZINC001386869844    0.1000
     43 H43       -12.6699    1.8704   51.4268 H       1  ZINC001386869844    0.1000
     44 H44       -12.5212    0.5839   50.1137 H       1  ZINC001386869844    0.0900
     45 H45       -14.6717   -0.4917   50.9236 H       1  ZINC001386869844    0.0900
     46 H46       -14.8208    0.7945   52.2369 H       1  ZINC001386869844    0.0900
     47 H47        -2.8729    3.6915   52.3214 H       1  ZINC001386869844    0.1500
     48 H48        -1.4909    0.6015   48.3753 H       1  ZINC001386869844    0.0800
     49 H49        -2.7297    1.4998   47.4609 H       1  ZINC001386869844    0.0800
     50 H50        -0.3315    2.2674   47.0448 H       1  ZINC001386869844    0.0700
     51 H51        -1.4417    3.5489   47.5859 H       1  ZINC001386869844    0.0700
     52 H52         0.3283    1.9565   49.4881 H       1  ZINC001386869844    0.0600
     53 H53         0.8157    3.5107   48.7703 H       1  ZINC001386869844    0.0700
     54 H54        -1.0424    4.6629   49.8206 H       1  ZINC001386869844    0.0700
     55 H55        -0.2542    3.6832   51.0842 H       1  ZINC001386869844    0.0700
     56 H56        -4.3619    0.8358   49.6581 H       1  ZINC001386869844    0.4200
@<TRIPOS>BOND
     1     1     2    1
     2     1    26    1
     3     1    27    1
     4     1    28    1
     5     2     3    1
     6     2    15   am
     7     3     4    1
     8     3    29    1
     9     3    30    1
    10     4     5    1
    11     4    31    1
    12     4    32    1
    13     5     6   am
    14     5    33    1
    15     6     7    2
    16     6     8    1
    17     8     9    1
    18     8    34    1
    19     8    35    1
    20     9    10    1
    21     9    11    1
    22     9    12    1
    23    10    36    1
    24    10    37    1
    25    10    38    1
    26    11    39    1
    27    11    40    1
    28    11    41    1
    29    12    14    1
    30    12    13    1
    31    12    42    1
    32    13    14    1
    33    13    43    1
    34    13    44    1
    35    14    45    1
    36    14    46    1
    37    15    16    2
    38    15    17    1
    39    17    25    1
    40    17    18    2
    41    18    19    1
    42    18    47    1
    43    19    24    1
    44    19    20    2
    45    20    21    1
    46    20    25    1
    47    21    22    1
    48    21    48    1
    49    21    49    1
    50    22    23    1
    51    22    50    1
    52    22    51    1
    53    23    24    1
    54    23    52    1
    55    23    53    1
    56    24    54    1
    57    24    55    1
    58    25    56    1
@<TRIPOS>SUBSTRUCTURE
     1 ZINC001386869844        1 TEMP              0 ****  ****    0 ROOT


##########                                Name:    ZINC000898967786
##########                DOCK_Rotatable_Bonds:                   5
##########                         Heavy_Atoms:                  25
##########                    Molecular_Weight:             356.448
##########                DOCK_Rotatable_Bonds:                   5
##########                       Formal_Charge:        -2.38419e-07
##########                     HBond_Acceptors:                   7
##########                        HBond_Donors:                   1
##########                         Heavy_Atoms:                  25
##########                          Grid_Score:          -28.566771
##########                     Grid_vdw_energy:          -27.716848
##########                      Grid_es_energy:           -0.849922
##########           Internal_energy_repulsive:           12.735119

@<TRIPOS>MOLECULE
ZINC000898967786
 45 48 1 0 0
SMALL
USER_CHARGES


@<TRIPOS>ATOM
      1 C1          2.9994   -0.7473   47.9499 C.3     1  ZINC000898967786   -0.0800
      2 C2          2.1242    0.1014   47.0638 C.2     1  ZINC000898967786    0.0900
      3 C3          0.7852    0.2403   47.1790 C.2     1  ZINC000898967786   -0.1000
      4 C4         -0.0973   -0.4192   48.2071 C.3     1  ZINC000898967786    0.2200
      5 N5         -0.9970    0.5789   48.7908 N.am    1  ZINC000898967786   -0.7400
      6 C6         -0.4897    1.6484   49.4354 C.2     1  ZINC000898967786    0.7100
      7 O7          0.7145    1.7849   49.5323 O.2     1  ZINC000898967786   -0.5800
      8 N8         -1.3175    2.5666   49.9723 N.am    1  ZINC000898967786   -0.6300
      9 C9         -0.7871    3.7424   50.6805 C.3     1  ZINC000898967786    0.0900
     10 C10        -1.4881    3.8449   52.0399 C.3     1  ZINC000898967786    0.0500
     11 O11        -2.9037    3.8071   51.8436 O.3     1  ZINC000898967786   -0.3700
     12 C12        -3.3822    2.5899   51.2664 C.3     1  ZINC000898967786    0.1400
     13 H13        -3.0863    1.7487   51.8933 H       1  ZINC000898967786    0.0700
     14 C14        -4.8849    2.6377   51.1646 C.2     1  ZINC000898967786   -0.1100
     15 C15        -5.5494    3.7588   50.8800 C.2     1  ZINC000898967786   -0.1800
     16 S16        -7.2766    3.4284   50.8470 S.3     1  ZINC000898967786    0.1100
     17 C17        -6.9908    1.7364   51.2329 C.2     1  ZINC000898967786   -0.2100
     18 C18        -5.6800    1.5204   51.3535 C.2     1  ZINC000898967786   -0.1300
     19 C19        -2.7781    2.4260   49.8625 C.3     1  ZINC000898967786    0.0900
     20 N20         0.3806    1.0923   46.1877 N.pl3   1  ZINC000898967786   -0.3500
     21 C21        -0.8432    1.5816   45.8333 C.2     1  ZINC000898967786    0.0600
     22 C22        -0.9691    2.4271   44.7891 C.2     1  ZINC000898967786   -0.1400
     23 C23         0.1613    2.8151   44.0509 C.2     1  ZINC000898967786   -0.1000
     24 C24         1.3870    2.3348   44.3934 C.2     1  ZINC000898967786   -0.0800
     25 C25         1.5021    1.4531   45.4868 C.2     1  ZINC000898967786    0.2400
     26 N26         2.5435    0.8457   46.0379 N.2     1  ZINC000898967786   -0.4900
     27 H27         3.3435   -0.1535   48.7967 H       1  ZINC000898967786    0.0800
     28 H28         2.4285   -1.6017   48.3133 H       1  ZINC000898967786    0.0700
     29 H29         3.8591   -1.1004   47.3804 H       1  ZINC000898967786    0.0800
     30 H30        -0.6852   -1.2043   47.7316 H       1  ZINC000898967786    0.1000
     31 H31         0.5215   -0.8537   48.9922 H       1  ZINC000898967786    0.0700
     32 H32        -1.9577    0.4699   48.7135 H       1  ZINC000898967786    0.4000
     33 H33         0.2867    3.6281   50.8288 H       1  ZINC000898967786    0.1100
     34 H34        -0.9839    4.6419   50.0972 H       1  ZINC000898967786    0.0800
     35 H35        -1.1854    3.0083   52.6697 H       1  ZINC000898967786    0.0600
     36 H36        -1.2123    4.7828   52.5220 H       1  ZINC000898967786    0.1100
     37 H37        -5.0963    4.7220   50.6981 H       1  ZINC000898967786    0.1700
     38 H38        -7.7587    0.9861   51.3496 H       1  ZINC000898967786    0.1700
     39 H39        -5.2706    0.5492   51.5888 H       1  ZINC000898967786    0.1400
     40 H40        -3.1774    3.1933   49.1992 H       1  ZINC000898967786    0.0800
     41 H41        -3.0219    1.4384   49.4709 H       1  ZINC000898967786    0.0900
     42 H42        -1.7189    1.2892   46.3937 H       1  ZINC000898967786    0.1600
     43 H43        -1.9435    2.8069   44.5194 H       1  ZINC000898967786    0.1500
     44 H44         0.0577    3.4912   43.2152 H       1  ZINC000898967786    0.1500
     45 H45         2.2631    2.6260   43.8329 H       1  ZINC000898967786    0.1500
@<TRIPOS>BOND
     1     1     2    1
     2     1    27    1
     3     1    28    1
     4     1    29    1
     5     2    26    1
     6     2     3    2
     7     3     4    1
     8     3    20    1
     9     4     5    1
    10     4    30    1
    11     4    31    1
    12     5     6   am
    13     5    32    1
    14     6     7    2
    15     6     8   am
    16     8    19    1
    17     8     9    1
    18     9    10    1
    19     9    33    1
    20     9    34    1
    21    10    11    1
    22    10    35    1
    23    10    36    1
    24    11    12    1
    25    12    13    1
    26    12    14    1
    27    12    19    1
    28    14    18    1
    29    14    15    2
    30    15    16    1
    31    15    37    1
    32    16    17    1
    33    17    18    2
    34    17    38    1
    35    18    39    1
    36    19    40    1
    37    19    41    1
    38    20    25    1
    39    20    21    1
    40    21    22    2
    41    21    42    1
    42    22    23    1
    43    22    43    1
    44    23    24    2
    45    23    44    1
    46    24    25    1
    47    24    45    1
    48    25    26    2
@<TRIPOS>SUBSTRUCTURE
     1 ZINC000898967786        1 TEMP              0 ****  ****    0 ROOT


##########                                Name:    ZINC000541252362
##########                DOCK_Rotatable_Bonds:                   5
##########                         Heavy_Atoms:                  27
##########                    Molecular_Weight:             401.254
##########                DOCK_Rotatable_Bonds:                   5
##########                       Formal_Charge:          -0.0199999
##########                     HBond_Acceptors:                   9
##########                        HBond_Donors:                   1
##########                         Heavy_Atoms:                  27
##########                          Grid_Score:          -28.556049
##########                     Grid_vdw_energy:          -28.685755
##########                      Grid_es_energy:            0.129705
##########           Internal_energy_repulsive:            6.953314

@<TRIPOS>MOLECULE
ZINC000541252362
 41 44 1 0 0
SMALL
USER_CHARGES


@<TRIPOS>ATOM
      1 C1        -10.1946    1.4903   56.2682 C.3     1  ZINC000541252362    0.1000
      2 N2         -8.8322    2.0180   56.3771 N.pl3   1  ZINC000541252362   -0.3800
      3 C3         -8.1160    2.1706   57.5056 C.2     1  ZINC000541252362    0.2600
      4 N4         -6.9507    2.6689   57.1876 N.2     1  ZINC000541252362   -0.5300
      5 C5         -6.8815    2.8502   55.8620 C.2     1  ZINC000541252362    0.2700
      6 C6         -5.7160    3.3967   55.1233 C.ar    1  ZINC000541252362    0.0000
      7 C7         -4.6268    3.9145   55.8214 C.ar    1  ZINC000541252362   -0.1000
      8 C8         -3.5429    4.4222   55.1328 C.ar    1  ZINC000541252362   -0.1000
      9 C9         -3.5340    4.4193   53.7511 C.ar    1  ZINC000541252362   -0.1300
     10 C10        -4.6159    3.9049   53.0468 C.ar    1  ZINC000541252362    0.1400
     11 N11        -4.6034    3.9036   51.6474 N.am    1  ZINC000541252362   -0.6800
     12 C12        -4.7394    2.7445   50.9733 C.2     1  ZINC000541252362    0.5100
     13 O13        -4.8725    1.7024   51.5795 O.2     1  ZINC000541252362   -0.4900
     14 C14        -4.7260    2.7431   49.4664 C.3     1  ZINC000541252362   -0.0600
     15 C15        -3.4158    2.1828   48.9762 C.2     1  ZINC000541252362    0.0700
     16 C16        -2.6247    1.3207   49.6522 C.2     1  ZINC000541252362   -0.0700
     17 N17        -1.5386    1.0636   48.8610 N.pl3   1  ZINC000541252362   -0.3500
     18 C18        -0.4355    0.2768   49.0338 C.2     1  ZINC000541252362    0.0700
     19 C19         0.5112    0.1994   48.0741 C.2     1  ZINC000541252362   -0.0500
     20 Cl20        1.9053   -0.8067   48.3143 Cl      1  ZINC000541252362   -0.0200
     21 C21         0.3724    0.9294   46.8811 C.2     1  ZINC000541252362   -0.0900
     22 C22        -0.7223    1.7168   46.6963 C.2     1  ZINC000541252362    0.0200
     23 Cl23       -0.9113    2.6253   45.2291 Cl      1  ZINC000541252362   -0.0100
     24 C24        -1.7016    1.7870   47.7088 C.2     1  ZINC000541252362    0.2200
     25 N25        -2.8458    2.4507   47.7991 N.2     1  ZINC000541252362   -0.4300
     26 C26        -5.7055    3.3881   53.7310 C.ar    1  ZINC000541252362   -0.0800
     27 N27        -8.0151    2.4582   55.3232 N.2     1  ZINC000541252362   -0.3100
     28 H28       -10.1558    0.4091   56.1357 H       1  ZINC000541252362    0.0800
     29 H29       -10.7489    1.7254   57.1768 H       1  ZINC000541252362    0.0900
     30 H30       -10.6924    1.9438   55.4112 H       1  ZINC000541252362    0.0900
     31 H31        -8.4476    1.9237   58.5034 H       1  ZINC000541252362    0.2200
     32 H32        -4.6306    3.9191   56.9014 H       1  ZINC000541252362    0.1300
     33 H33        -2.6997    4.8231   55.6758 H       1  ZINC000541252362    0.1300
     34 H34        -2.6843    4.8182   53.2171 H       1  ZINC000541252362    0.1300
     35 H35        -4.4969    4.7370   51.1627 H       1  ZINC000541252362    0.4100
     36 H36        -5.5457    2.1272   49.0964 H       1  ZINC000541252362    0.1200
     37 H37        -4.8444    3.7632   49.1010 H       1  ZINC000541252362    0.1200
     38 H38        -2.8140    0.9119   50.6337 H       1  ZINC000541252362    0.1900
     39 H39        -0.3192   -0.2883   49.9468 H       1  ZINC000541252362    0.1800
     40 H40         1.1309    0.8663   46.1149 H       1  ZINC000541252362    0.1600
     41 H41        -6.5472    2.9875   53.1856 H       1  ZINC000541252362    0.1500
@<TRIPOS>BOND
     1     1     2    1
     2     1    28    1
     3     1    29    1
     4     1    30    1
     5     2    27    1
     6     2     3    1
     7     3     4    2
     8     3    31    1
     9     4     5    1
    10     5     6    1
    11     5    27    2
    12     6    26   ar
    13     6     7   ar
    14     7     8   ar
    15     7    32    1
    16     8     9   ar
    17     8    33    1
    18     9    10   ar
    19     9    34    1
    20    10    11    1
    21    10    26   ar
    22    11    12   am
    23    11    35    1
    24    12    13    2
    25    12    14    1
    26    14    15    1
    27    14    36    1
    28    14    37    1
    29    15    25    1
    30    15    16    2
    31    16    17    1
    32    16    38    1
    33    17    24    1
    34    17    18    1
    35    18    19    2
    36    18    39    1
    37    19    20    1
    38    19    21    1
    39    21    22    2
    40    21    40    1
    41    22    23    1
    42    22    24    1
    43    24    25    2
    44    26    41    1
@<TRIPOS>SUBSTRUCTURE
     1 ZINC000541252362        1 TEMP              0 ****  ****    0 ROOT


##########                                Name:    ZINC001341052241
##########                DOCK_Rotatable_Bonds:                   7
##########                         Heavy_Atoms:                  24
##########                    Molecular_Weight:             336.478
##########                DOCK_Rotatable_Bonds:                   7
##########                       Formal_Charge:         5.96046e-08
##########                     HBond_Acceptors:                   6
##########                        HBond_Donors:                   0
##########                         Heavy_Atoms:                  24
##########                          Grid_Score:          -28.537664
##########                     Grid_vdw_energy:          -27.705280
##########                      Grid_es_energy:           -0.832384
##########           Internal_energy_repulsive:           10.420031

@<TRIPOS>MOLECULE
ZINC001341052241
 56 58 1 0 0
SMALL
USER_CHARGES


@<TRIPOS>ATOM
      1 C1        -11.2629   -3.4103   57.3971 C.3     1  ZINC001341052241   -0.1700
      2 C2        -11.9421   -2.0564   57.6132 C.3     1  ZINC001341052241    0.1100
      3 N3        -12.7488   -2.1043   58.8351 N.pl3   1  ZINC001341052241   -0.4500
      4 C4        -13.9548   -2.7263   59.0042 C.2     1  ZINC001341052241    0.1800
      5 C5        -14.7142   -3.5020   57.9589 C.3     1  ZINC001341052241    0.1500
      6 O6        -15.9738   -2.8713   57.7193 O.3     1  ZINC001341052241   -0.3700
      7 C7        -15.8797   -1.6394   57.0010 C.3     1  ZINC001341052241    0.0900
      8 C8        -17.1837   -0.8553   57.1603 C.3     1  ZINC001341052241   -0.1400
      9 C9        -17.0829    0.4636   56.3914 C.3     1  ZINC001341052241   -0.1200
     10 C10       -16.8407    0.1724   54.9090 C.3     1  ZINC001341052241   -0.1200
     11 C11       -15.5367   -0.6117   54.7497 C.3     1  ZINC001341052241   -0.1200
     12 C12       -15.6375   -1.9306   55.5187 C.3     1  ZINC001341052241   -0.1200
     13 N13       -14.3252   -2.5247   60.2371 N.2     1  ZINC001341052241   -0.2600
     14 N14       -13.4396   -1.8279   60.8551 N.2     1  ZINC001341052241   -0.3100
     15 C15       -12.4529   -1.5371   60.0403 C.2     1  ZINC001341052241    0.3500
     16 N16       -11.3214   -0.7985   60.3475 N.3     1  ZINC001341052241   -0.4600
     17 C17       -11.6136    0.2092   61.3748 C.3     1  ZINC001341052241    0.0700
     18 C18       -10.3853    1.0982   61.5832 C.3     1  ZINC001341052241   -0.1100
     19 C19        -9.2006    0.2300   62.0157 C.3     1  ZINC001341052241   -0.0900
     20 C20        -7.9542    1.1045   62.1667 C.3     1  ZINC001341052241    0.0700
     21 O21        -8.1044    1.9554   63.3050 O.3     1  ZINC001341052241   -0.3900
     22 C22        -7.5508    1.4194   64.5084 C.3     1  ZINC001341052241    0.0300
     23 C23        -8.9478   -0.8416   60.9516 C.3     1  ZINC001341052241   -0.1100
     24 C24       -10.2177   -1.6743   60.7616 C.3     1  ZINC001341052241    0.0700
     25 H25       -10.6280   -3.6389   58.2530 H       1  ZINC001341052241    0.0600
     26 H26       -12.0223   -4.1849   57.2907 H       1  ZINC001341052241    0.0700
     27 H27       -10.6545   -3.3714   56.4934 H       1  ZINC001341052241    0.0800
     28 H28       -12.5850   -1.8326   56.7619 H       1  ZINC001341052241    0.0900
     29 H29       -11.1829   -1.2802   57.7092 H       1  ZINC001341052241    0.1000
     30 H30       -14.1379   -3.5256   57.0340 H       1  ZINC001341052241    0.0900
     31 H31       -14.8788   -4.5205   58.3106 H       1  ZINC001341052241    0.0700
     32 H32       -15.0513   -1.0511   57.3958 H       1  ZINC001341052241    0.0600
     33 H33       -18.0120   -1.4436   56.7656 H       1  ZINC001341052241    0.0700
     34 H34       -17.3562   -0.6478   58.2164 H       1  ZINC001341052241    0.0700
     35 H35       -16.2546    1.0520   56.7861 H       1  ZINC001341052241    0.0600
     36 H36       -18.0120    1.0222   56.5048 H       1  ZINC001341052241    0.0700
     37 H37       -16.7689    1.1120   54.3611 H       1  ZINC001341052241    0.0600
     38 H38       -17.6690   -0.4160   54.5142 H       1  ZINC001341052241    0.0600
     39 H39       -14.7083   -0.0234   55.1444 H       1  ZINC001341052241    0.0600
     40 H40       -15.3642   -0.8192   53.6936 H       1  ZINC001341052241    0.0700
     41 H41       -14.7083   -2.4893   55.4052 H       1  ZINC001341052241    0.0700
     42 H42       -16.4658   -2.5190   55.1239 H       1  ZINC001341052241    0.0700
     43 H43       -11.8645   -0.2889   62.3113 H       1  ZINC001341052241    0.0600
     44 H44       -12.4552    0.8225   61.0529 H       1  ZINC001341052241    0.0800
     45 H45       -10.5973    1.8361   62.3568 H       1  ZINC001341052241    0.0800
     46 H46       -10.1421    1.6073   60.6506 H       1  ZINC001341052241    0.0800
     47 H47        -9.4279   -0.2479   62.9686 H       1  ZINC001341052241    0.0800
     48 H48        -7.8274    1.7139   61.2719 H       1  ZINC001341052241    0.0500
     49 H49        -7.0786    0.4694   62.3009 H       1  ZINC001341052241    0.0500
     50 H50        -8.0418    0.4755   64.7453 H       1  ZINC001341052241    0.0400
     51 H51        -7.7056    2.1245   65.3251 H       1  ZINC001341052241    0.0900
     52 H52        -6.4827    1.2493   64.3727 H       1  ZINC001341052241    0.0400
     53 H53        -8.6820   -0.3629   60.0091 H       1  ZINC001341052241    0.0700
     54 H54        -8.1327   -1.4894   61.2741 H       1  ZINC001341052241    0.0800
     55 H55       -10.4751   -2.1636   61.7009 H       1  ZINC001341052241    0.0600
     56 H56       -10.0455   -2.4291   59.9943 H       1  ZINC001341052241    0.0800
@<TRIPOS>BOND
     1     1     2    1
     2     1    25    1
     3     1    26    1
     4     1    27    1
     5     2     3    1
     6     2    28    1
     7     2    29    1
     8     3    15    1
     9     3     4    1
    10     4     5    1
    11     4    13    2
    12     5     6    1
    13     5    30    1
    14     5    31    1
    15     6     7    1
    16     7    12    1
    17     7     8    1
    18     7    32    1
    19     8     9    1
    20     8    33    1
    21     8    34    1
    22     9    10    1
    23     9    35    1
    24     9    36    1
    25    10    11    1
    26    10    37    1
    27    10    38    1
    28    11    12    1
    29    11    39    1
    30    11    40    1
    31    12    41    1
    32    12    42    1
    33    13    14    1
    34    14    15    2
    35    15    16    1
    36    16    24    1
    37    16    17    1
    38    17    18    1
    39    17    43    1
    40    17    44    1
    41    18    19    1
    42    18    45    1
    43    18    46    1
    44    19    20    1
    45    19    23    1
    46    19    47    1
    47    20    21    1
    48    20    48    1
    49    20    49    1
    50    21    22    1
    51    22    50    1
    52    22    51    1
    53    22    52    1
    54    23    24    1
    55    23    53    1
    56    23    54    1
    57    24    55    1
    58    24    56    1
@<TRIPOS>SUBSTRUCTURE
     1 ZINC001341052241        1 TEMP              0 ****  ****    0 ROOT


##########                                Name:    ZINC000790735374
##########                DOCK_Rotatable_Bonds:                   5
##########                         Heavy_Atoms:                  25
##########                    Molecular_Weight:             353.445
##########                DOCK_Rotatable_Bonds:                   5
##########                       Formal_Charge:                   0
##########                     HBond_Acceptors:                   6
##########                        HBond_Donors:                   1
##########                         Heavy_Atoms:                  25
##########                          Grid_Score:          -28.536674
##########                     Grid_vdw_energy:          -26.654631
##########                      Grid_es_energy:           -1.882044
##########           Internal_energy_repulsive:            7.717000

@<TRIPOS>MOLECULE
ZINC000790735374
 44 47 1 0 0
SMALL
USER_CHARGES


@<TRIPOS>ATOM
      1 O1         -5.6405    1.1026   51.3815 O.2     1  ZINC000790735374   -0.5100
      2 C2         -5.2039    2.1780   51.7336 C.2     1  ZINC000790735374    0.5000
      3 N3         -4.0987    2.6808   51.1487 N.am    1  ZINC000790735374   -0.7200
      4 C4         -3.4211    1.9256   50.0919 C.3     1  ZINC000790735374    0.1400
      5 C5         -2.0692    2.5743   49.7880 C.3     1  ZINC000790735374   -0.0300
      6 H6         -2.1494    3.1637   48.8746 H       1  ZINC000790735374    0.1100
      7 S7         -1.6026    3.6602   51.1632 S.3     1  ZINC000790735374   -0.2400
      8 C8          0.1535    3.9568   50.7853 C.3     1  ZINC000790735374   -0.0800
      9 C9          0.8804    2.6239   50.8841 C.3     1  ZINC000790735374   -0.0800
     10 C10         0.2572    1.5370   50.0552 C.ar    1  ZINC000790735374   -0.0700
     11 C11         1.1160    0.4756   49.7504 C.ar    1  ZINC000790735374   -0.1200
     12 C12         0.6909   -0.6042   49.0129 C.ar    1  ZINC000790735374   -0.1100
     13 C13        -0.6151   -0.6487   48.5614 C.ar    1  ZINC000790735374   -0.1200
     14 C14        -1.4636    0.3950   48.8526 C.ar    1  ZINC000790735374   -0.1100
     15 C15        -1.0305    1.4969   49.5972 C.ar    1  ZINC000790735374   -0.0800
     16 C16        -5.9009    2.9549   52.8207 C.3     1  ZINC000790735374    0.0300
     17 H17        -5.1822    3.5144   53.4196 H       1  ZINC000790735374    0.1500
     18 C18        -6.9776    3.8942   52.2270 C.3     1  ZINC000790735374   -0.1400
     19 C19        -8.2357    3.0514   52.3163 C.2     1  ZINC000790735374    0.1200
     20 C20        -9.5048    3.3141   51.6090 C.ar    1  ZINC000790735374   -0.1000
     21 C21        -9.6595    4.4655   50.8278 C.ar    1  ZINC000790735374   -0.0400
     22 C22       -10.8688    4.6645   50.1850 C.ar    1  ZINC000790735374   -0.1700
     23 C23       -11.8764    3.7287   50.3334 C.ar    1  ZINC000790735374    0.1200
     24 N24       -11.7026    2.6522   51.0762 N.ar    1  ZINC000790735374   -0.4800
     25 C25       -10.5692    2.4154   51.7032 C.ar    1  ZINC000790735374    0.1400
     26 N26        -8.0061    2.0653   53.1169 N.2     1  ZINC000790735374   -0.2700
     27 O27        -6.6957    2.0828   53.6498 O.3     1  ZINC000790735374   -0.1600
     28 H28        -3.7517    3.5426   51.4275 H       1  ZINC000790735374    0.4100
     29 H29        -3.2653    0.8986   50.4220 H       1  ZINC000790735374    0.0800
     30 H30        -4.0361    1.9286   49.1919 H       1  ZINC000790735374    0.0900
     31 H31         0.2517    4.3572   49.7763 H       1  ZINC000790735374    0.0900
     32 H32         0.5724    4.6602   51.5049 H       1  ZINC000790735374    0.1100
     33 H33         1.9111    2.7637   50.5581 H       1  ZINC000790735374    0.0900
     34 H34         0.8873    2.3068   51.9269 H       1  ZINC000790735374    0.0900
     35 H35         2.1367    0.5050   50.1025 H       1  ZINC000790735374    0.1200
     36 H36         1.3721   -1.4112   48.7875 H       1  ZINC000790735374    0.1300
     37 H37        -0.9655   -1.4931   47.9863 H       1  ZINC000790735374    0.1300
     38 H38        -2.4842    0.3608   48.5013 H       1  ZINC000790735374    0.1300
     39 H39        -7.0748    4.7992   52.8266 H       1  ZINC000790735374    0.1200
     40 H40        -6.7485    4.1387   51.1898 H       1  ZINC000790735374    0.1100
     41 H41        -8.8559    5.1803   50.7297 H       1  ZINC000790735374    0.1500
     42 H42       -11.0243    5.5415   49.5743 H       1  ZINC000790735374    0.1500
     43 H43       -12.8213    3.8819   49.8331 H       1  ZINC000790735374    0.1600
     44 H44       -10.4648    1.5227   52.3019 H       1  ZINC000790735374    0.1600
@<TRIPOS>BOND
     1     1     2    2
     2     2     3   am
     3     2    16    1
     4     3     4    1
     5     3    28    1
     6     4     5    1
     7     4    29    1
     8     4    30    1
     9     5     6    1
    10     5    15    1
    11     5     7    1
    12     7     8    1
    13     8     9    1
    14     8    31    1
    15     8    32    1
    16     9    10    1
    17     9    33    1
    18     9    34    1
    19    10    15   ar
    20    10    11   ar
    21    11    12   ar
    22    11    35    1
    23    12    13   ar
    24    12    36    1
    25    13    14   ar
    26    13    37    1
    27    14    15   ar
    28    14    38    1
    29    16    17    1
    30    16    27    1
    31    16    18    1
    32    18    19    1
    33    18    39    1
    34    18    40    1
    35    19    20    1
    36    19    26    2
    37    20    25   ar
    38    20    21   ar
    39    21    22   ar
    40    21    41    1
    41    22    23   ar
    42    22    42    1
    43    23    24   ar
    44    23    43    1
    45    24    25   ar
    46    25    44    1
    47    26    27    1
@<TRIPOS>SUBSTRUCTURE
     1 ZINC000790735374        1 TEMP              0 ****  ****    0 ROOT


##########                                Name:    ZINC000486710336
##########                DOCK_Rotatable_Bonds:                   6
##########                         Heavy_Atoms:                  31
##########                    Molecular_Weight:             420.555
##########                DOCK_Rotatable_Bonds:                   6
##########                       Formal_Charge:         1.49012e-07
##########                     HBond_Acceptors:                   6
##########                        HBond_Donors:                   1
##########                         Heavy_Atoms:                  31
##########                          Grid_Score:          -28.529097
##########                     Grid_vdw_energy:          -28.057194
##########                      Grid_es_energy:           -0.471902
##########           Internal_energy_repulsive:           56.311600

@<TRIPOS>MOLECULE
ZINC000486710336
 63 67 1 0 0
SMALL
USER_CHARGES


@<TRIPOS>ATOM
      1 C1         -5.1900    3.6457   55.7910 C.3     1  ZINC000486710336    0.1000
      2 N2         -5.9246    3.4967   54.5324 N.pl3   1  ZINC000486710336   -0.3900
      3 N3         -7.2037    2.9453   54.3837 N.2     1  ZINC000486710336   -0.2800
      4 C4         -7.5256    2.9834   53.1160 C.2     1  ZINC000486710336    0.1000
      5 C5         -8.8189    2.4898   52.5203 C.3     1  ZINC000486710336   -0.0100
      6 C6         -9.1942    1.1073   53.1091 C.3     1  ZINC000486710336   -0.1200
      7 C7        -10.7274    1.0500   52.8964 C.3     1  ZINC000486710336   -0.1200
      8 C8        -11.2018    2.4916   53.1726 C.3     1  ZINC000486710336   -0.1200
      9 C9         -9.9884    3.4071   52.9334 C.3     1  ZINC000486710336   -0.1100
     10 C10        -6.4677    3.5587   52.4081 C.2     1  ZINC000486710336   -0.2600
     11 C11        -5.4894    3.8739   53.3020 C.2     1  ZINC000486710336    0.3000
     12 N12        -4.2649    4.4669   53.0077 N.am    1  ZINC000486710336   -0.6200
     13 C13        -3.5157    3.9969   51.9907 C.2     1  ZINC000486710336    0.5100
     14 O14        -3.9080    3.0555   51.3323 O.2     1  ZINC000486710336   -0.4800
     15 C15        -2.2031    4.6341   51.6739 C.2     1  ZINC000486710336    0.5300
     16 O16        -1.8286    5.5994   52.3071 O.2     1  ZINC000486710336   -0.5100
     17 N17        -1.4341    4.1374   50.6848 N.am    1  ZINC000486710336   -0.5800
     18 C18        -1.7592    2.9795   49.8324 C.3     1  ZINC000486710336    0.1000
     19 C19        -0.5654    2.7692   48.8747 C.3     1  ZINC000486710336   -0.0600
     20 H20        -0.7463    3.2595   47.9181 H       1  ZINC000486710336    0.1000
     21 C21        -0.2912    1.3006   48.6769 C.ar    1  ZINC000486710336   -0.0700
     22 C22        -1.2701    0.3692   48.9684 C.ar    1  ZINC000486710336   -0.1100
     23 C23        -1.0185   -0.9778   48.7870 C.ar    1  ZINC000486710336   -0.1200
     24 C24         0.2119   -1.3935   48.3136 C.ar    1  ZINC000486710336   -0.1200
     25 C25         1.1906   -0.4621   48.0213 C.ar    1  ZINC000486710336   -0.1200
     26 C26         0.9375    0.8853   48.1986 C.ar    1  ZINC000486710336   -0.1100
     27 C27         0.6088    3.4578   49.6358 C.3     1  ZINC000486710336   -0.0800
     28 H28         1.4176    3.7662   48.9734 H       1  ZINC000486710336    0.1100
     29 C29         1.0758    2.4684   50.7055 C.3     1  ZINC000486710336   -0.1100
     30 C30         1.9208    3.1758   51.7623 C.3     1  ZINC000486710336   -0.1200
     31 C31         1.0555    4.2345   52.4543 C.3     1  ZINC000486710336   -0.1100
     32 C32         0.6434    5.2766   51.4146 C.3     1  ZINC000486710336   -0.1400
     33 C33        -0.1306    4.6569   50.2630 C.3     1  ZINC000486710336    0.1400
     34 H34        -0.3000    5.4230   49.5063 H       1  ZINC000486710336    0.0800
     35 H35        -5.4283    4.6104   56.2388 H       1  ZINC000486710336    0.0800
     36 H36        -5.4758    2.8469   56.4753 H       1  ZINC000486710336    0.1000
     37 H37        -4.1191    3.5907   55.5953 H       1  ZINC000486710336    0.0800
     38 H38        -8.7416    2.4361   51.4343 H       1  ZINC000486710336    0.0900
     39 H39        -8.6980    0.3064   52.5609 H       1  ZINC000486710336    0.0700
     40 H40        -8.9495    1.0600   54.1702 H       1  ZINC000486710336    0.0800
     41 H41       -10.9598    0.7617   51.8712 H       1  ZINC000486710336    0.0700
     42 H42       -11.1847    0.3561   53.6017 H       1  ZINC000486710336    0.0700
     43 H43       -12.0094    2.7562   52.4900 H       1  ZINC000486710336    0.0600
     44 H44       -11.5401    2.5821   54.2048 H       1  ZINC000486710336    0.0600
     45 H45        -9.7379    3.9419   53.8497 H       1  ZINC000486710336    0.0700
     46 H46       -10.2071    4.1160   52.1349 H       1  ZINC000486710336    0.0700
     47 H47        -6.4332    3.7273   51.3419 H       1  ZINC000486710336    0.1700
     48 H48        -3.9509    5.2184   53.5345 H       1  ZINC000486710336    0.4200
     49 H49        -1.9003    2.0923   50.4497 H       1  ZINC000486710336    0.0900
     50 H50        -2.6635    3.1832   49.2590 H       1  ZINC000486710336    0.0800
     51 H51        -2.2314    0.6941   49.3383 H       1  ZINC000486710336    0.1200
     52 H52        -1.7832   -1.7054   49.0154 H       1  ZINC000486710336    0.1200
     53 H53         0.4087   -2.4461   48.1725 H       1  ZINC000486710336    0.1200
     54 H54         2.1521   -0.7869   47.6518 H       1  ZINC000486710336    0.1200
     55 H55         1.7022    1.6130   47.9703 H       1  ZINC000486710336    0.1200
     56 H56         0.2053    2.0190   51.1835 H       1  ZINC000486710336    0.0700
     57 H57         1.6706    1.6854   50.2352 H       1  ZINC000486710336    0.0700
     58 H58         2.2691    2.4505   52.4977 H       1  ZINC000486710336    0.0600
     59 H59         2.7754    3.6562   51.2858 H       1  ZINC000486710336    0.0600
     60 H60         0.1667    3.7643   52.8750 H       1  ZINC000486710336    0.0500
     61 H61         1.6278    4.7146   53.2481 H       1  ZINC000486710336    0.0600
     62 H62         0.0215    6.0326   51.8939 H       1  ZINC000486710336    0.1000
     63 H63         1.5375    5.7533   51.0129 H       1  ZINC000486710336    0.0700
@<TRIPOS>BOND
     1     1     2    1
     2     1    35    1
     3     1    36    1
     4     1    37    1
     5     2    11    1
     6     2     3    1
     7     3     4    2
     8     4     5    1
     9     4    10    1
    10     5     9    1
    11     5     6    1
    12     5    38    1
    13     6     7    1
    14     6    39    1
    15     6    40    1
    16     7     8    1
    17     7    41    1
    18     7    42    1
    19     8     9    1
    20     8    43    1
    21     8    44    1
    22     9    45    1
    23     9    46    1
    24    10    11    2
    25    10    47    1
    26    11    12    1
    27    12    13   am
    28    12    48    1
    29    13    14    2
    30    13    15    1
    31    15    16    2
    32    15    17   am
    33    17    33    1
    34    17    18    1
    35    18    19    1
    36    18    49    1
    37    18    50    1
    38    19    20    1
    39    19    21    1
    40    19    27    1
    41    21    26   ar
    42    21    22   ar
    43    22    23   ar
    44    22    51    1
    45    23    24   ar
    46    23    52    1
    47    24    25   ar
    48    24    53    1
    49    25    26   ar
    50    25    54    1
    51    26    55    1
    52    27    28    1
    53    27    33    1
    54    27    29    1
    55    29    30    1
    56    29    56    1
    57    29    57    1
    58    30    31    1
    59    30    58    1
    60    30    59    1
    61    31    32    1
    62    31    60    1
    63    31    61    1
    64    32    33    1
    65    32    62    1
    66    32    63    1
    67    33    34    1
@<TRIPOS>SUBSTRUCTURE
     1 ZINC000486710336        1 TEMP              0 ****  ****    0 ROOT


##########                                Name:    ZINC000329637067
##########                DOCK_Rotatable_Bonds:                   5
##########                         Heavy_Atoms:                  26
##########                    Molecular_Weight:             362.429
##########                DOCK_Rotatable_Bonds:                   5
##########                       Formal_Charge:           0.0199998
##########                     HBond_Acceptors:                   8
##########                        HBond_Donors:                   0
##########                         Heavy_Atoms:                  26
##########                          Grid_Score:          -28.523849
##########                     Grid_vdw_energy:          -27.235943
##########                      Grid_es_energy:           -1.287907
##########           Internal_energy_repulsive:           27.151413

@<TRIPOS>MOLECULE
ZINC000329637067
 52 54 1 0 0
SMALL
USER_CHARGES


@<TRIPOS>ATOM
      1 C1         -0.2400   -0.7784   49.3307 C.3     1  ZINC000329637067   -0.1300
      2 C2         -0.5075    0.0835   48.1238 C.2     1  ZINC000329637067    0.2200
      3 C3          0.2956    0.0031   47.0288 C.2     1  ZINC000329637067   -0.2900
      4 C4          0.0221    0.8155   45.9245 C.2     1  ZINC000329637067    0.2800
      5 C5          0.8969    0.7446   44.6994 C.3     1  ZINC000329637067   -0.1200
      6 N6         -1.0027    1.6431   45.9572 N.2     1  ZINC000329637067   -0.5500
      7 C7         -1.7875    1.7175   47.0349 C.2     1  ZINC000329637067    0.6400
      8 O8         -2.7298    2.4917   47.0398 O.2     1  ZINC000329637067   -0.5300
      9 N9         -1.5571    0.9462   48.1139 N.am    1  ZINC000329637067   -0.5000
     10 C10        -2.4326    1.0457   49.2842 C.3     1  ZINC000329637067    0.0700
     11 C11        -1.9470    2.1543   50.1821 C.2     1  ZINC000329637067    0.5100
     12 O12        -0.8886    2.7006   49.9529 O.2     1  ZINC000329637067   -0.5200
     13 N13        -2.6887    2.5388   51.2397 N.am    1  ZINC000329637067   -0.6100
     14 C14        -2.2284    3.6180   52.1241 C.3     1  ZINC000329637067    0.1000
     15 C15        -3.3329    4.6742   52.2293 C.3     1  ZINC000329637067   -0.1400
     16 C16        -4.6329    4.0039   52.6795 C.3     1  ZINC000329637067   -0.1000
     17 C17        -5.0578    2.9624   51.6420 C.3     1  ZINC000329637067   -0.1200
     18 H18        -5.1915    3.4462   50.6744 H       1  ZINC000329637067    0.1000
     19 C19        -6.3554    2.3264   52.0698 C.2     1  ZINC000329637067    0.5300
     20 O20        -6.3518    1.2276   52.5830 O.2     1  ZINC000329637067   -0.5300
     21 N21        -7.5197    2.9787   51.8819 N.am    1  ZINC000329637067   -0.6200
     22 C22        -8.7986    2.3806   52.2971 C.3     1  ZINC000329637067    0.0800
     23 C23        -9.5630    3.4094   53.1380 C.3     1  ZINC000329637067    0.0500
     24 O24        -9.6427    4.6412   52.4166 O.3     1  ZINC000329637067   -0.3800
     25 C25        -8.3751    5.2450   52.1478 C.3     1  ZINC000329637067    0.0500
     26 C26        -7.5492    4.3126   51.2613 C.3     1  ZINC000329637067    0.0700
     27 C27        -3.9757    1.8909   51.5266 C.3     1  ZINC000329637067    0.1200
     28 H28        -1.1315   -1.3593   49.5672 H       1  ZINC000329637067    0.0900
     29 H29         0.5883   -1.4544   49.1181 H       1  ZINC000329637067    0.1000
     30 H30         0.0167   -0.1450   50.1798 H       1  ZINC000329637067    0.0900
     31 H31         1.1332   -0.6785   47.0131 H       1  ZINC000329637067    0.1600
     32 H32         0.5025   -0.0059   44.0143 H       1  ZINC000329637067    0.1000
     33 H33         0.9099    1.7162   44.2054 H       1  ZINC000329637067    0.0900
     34 H34         1.9109    0.4723   44.9923 H       1  ZINC000329637067    0.0900
     35 H35        -3.4505    1.2609   48.9593 H       1  ZINC000329637067    0.1200
     36 H36        -2.4173    0.1026   49.8306 H       1  ZINC000329637067    0.1300
     37 H37        -2.0142    3.2135   53.1133 H       1  ZINC000329637067    0.0800
     38 H38        -1.3278    4.0711   51.7096 H       1  ZINC000329637067    0.0900
     39 H39        -3.0434    5.4323   52.9570 H       1  ZINC000329637067    0.0900
     40 H40        -3.4828    5.1420   51.2562 H       1  ZINC000329637067    0.0700
     41 H41        -4.4755    3.5154   53.6411 H       1  ZINC000329637067    0.0800
     42 H42        -5.4144    4.7573   52.7789 H       1  ZINC000329637067    0.0800
     43 H43        -9.3843    2.1184   51.4161 H       1  ZINC000329637067    0.0800
     44 H44        -8.6099    1.4873   52.8923 H       1  ZINC000329637067    0.1000
     45 H45       -10.5685    3.0400   53.3396 H       1  ZINC000329637067    0.1100
     46 H46        -9.0385    3.5722   54.0795 H       1  ZINC000329637067    0.0600
     47 H47        -8.5258    6.1960   51.6369 H       1  ZINC000329637067    0.1100
     48 H48        -7.8462    5.4144   53.0856 H       1  ZINC000329637067    0.0600
     49 H49        -6.5340    4.6983   51.1683 H       1  ZINC000329637067    0.1000
     50 H50        -8.0076    4.2424   50.2748 H       1  ZINC000329637067    0.0800
     51 H51        -4.2277    1.2025   50.7199 H       1  ZINC000329637067    0.1000
     52 H52        -3.9014    1.3440   52.4665 H       1  ZINC000329637067    0.0800
@<TRIPOS>BOND
     1     1     2    1
     2     1    28    1
     3     1    29    1
     4     1    30    1
     5     2     9    1
     6     2     3    2
     7     3     4    1
     8     3    31    1
     9     4     5    1
    10     4     6    2
    11     5    32    1
    12     5    33    1
    13     5    34    1
    14     6     7    1
    15     7     8    2
    16     7     9   am
    17     9    10    1
    18    10    11    1
    19    10    35    1
    20    10    36    1
    21    11    12    2
    22    11    13   am
    23    13    27    1
    24    13    14    1
    25    14    15    1
    26    14    37    1
    27    14    38    1
    28    15    16    1
    29    15    39    1
    30    15    40    1
    31    16    17    1
    32    16    41    1
    33    16    42    1
    34    17    18    1
    35    17    19    1
    36    17    27    1
    37    19    20    2
    38    19    21   am
    39    21    26    1
    40    21    22    1
    41    22    23    1
    42    22    43    1
    43    22    44    1
    44    23    24    1
    45    23    45    1
    46    23    46    1
    47    24    25    1
    48    25    26    1
    49    25    47    1
    50    25    48    1
    51    26    49    1
    52    26    50    1
    53    27    51    1
    54    27    52    1
@<TRIPOS>SUBSTRUCTURE
     1 ZINC000329637067        1 TEMP              0 ****  ****    0 ROOT


##########                                Name:    ZINC000797321835
##########                DOCK_Rotatable_Bonds:                   4
##########                         Heavy_Atoms:                  22
##########                    Molecular_Weight:             381.253
##########                DOCK_Rotatable_Bonds:                   4
##########                       Formal_Charge:           0.0200001
##########                     HBond_Acceptors:                   7
##########                        HBond_Donors:                   1
##########                         Heavy_Atoms:                  22
##########                          Grid_Score:          -28.515121
##########                     Grid_vdw_energy:          -28.068937
##########                      Grid_es_energy:           -0.446185
##########           Internal_energy_repulsive:            6.104843

@<TRIPOS>MOLECULE
ZINC000797321835
 35 37 1 0 0
SMALL
USER_CHARGES


@<TRIPOS>ATOM
      1 C1         -6.4789    4.5933   50.4338 C.3     1  ZINC000797321835    0.1000
      2 N2         -6.6824    3.3205   51.1301 N.am    1  ZINC000797321835   -0.6000
      3 C3         -7.8743    2.8754   51.5638 C.2     1  ZINC000797321835    0.5200
      4 O4         -8.9244    3.4694   51.4405 O.2     1  ZINC000797321835   -0.5200
      5 C5         -7.7153    1.5253   52.2274 C.3     1  ZINC000797321835   -0.1500
      6 C6         -6.3247    1.0351   51.7615 C.3     1  ZINC000797321835   -0.1200
      7 C7         -5.6120    2.3649   51.4385 C.3     1  ZINC000797321835    0.1200
      8 H8         -5.0452    2.7090   52.3036 H       1  ZINC000797321835    0.1100
      9 C9         -4.6985    2.1923   50.2524 C.2     1  ZINC000797321835    0.4900
     10 O10        -5.1219    2.3696   49.1299 O.2     1  ZINC000797321835   -0.4400
     11 N11        -3.4108    1.8407   50.4393 N.am    1  ZINC000797321835   -0.6500
     12 C12        -2.5653    1.6809   49.3416 C.ar    1  ZINC000797321835    0.3000
     13 C13        -2.0219    0.4279   49.0558 C.ar    1  ZINC000797321835   -0.1400
     14 C14        -1.1892    0.3156   47.9573 C.ar    1  ZINC000797321835   -0.0800
     15 C15        -0.9430    1.4682   47.1996 C.ar    1  ZINC000797321835    0.1100
     16 C16        -0.0616    1.4032   46.0165 C.2     1  ZINC000797321835   -0.1400
     17 C17         0.1061    2.3925   45.1154 C.2     1  ZINC000797321835   -0.0900
     18 C18         0.9832    2.0983   44.0928 C.2     1  ZINC000797321835   -0.0900
     19 C19         1.5323    0.8798   44.1507 C.2     1  ZINC000797321835   -0.2000
     20 Br20        2.7681    0.1829   42.9005 Br      1  ZINC000797321835    0.0200
     21 S21         0.9373    0.0267   45.5687 S.3     1  ZINC000797321835    0.1900
     22 N22        -1.5062    2.6196   47.5496 N.ar    1  ZINC000797321835   -0.1900
     23 N23        -2.2823    2.7172   48.5671 N.ar    1  ZINC000797321835   -0.2200
     24 H24        -6.5865    4.4411   49.3599 H       1  ZINC000797321835    0.0700
     25 H25        -7.2200    5.3163   50.7744 H       1  ZINC000797321835    0.0800
     26 H26        -5.4787    4.9694   50.6491 H       1  ZINC000797321835    0.0700
     27 H27        -7.7398    1.6282   53.3123 H       1  ZINC000797321835    0.1100
     28 H28        -8.4937    0.8405   51.8906 H       1  ZINC000797321835    0.1100
     29 H29        -5.8123    0.4988   52.5603 H       1  ZINC000797321835    0.1100
     30 H30        -6.4086    0.4151   50.8690 H       1  ZINC000797321835    0.0900
     31 H31        -3.0721    1.6989   51.3371 H       1  ZINC000797321835    0.4200
     32 H32        -2.2449   -0.4290   49.6743 H       1  ZINC000797321835    0.1600
     33 H33        -0.7422   -0.6311   47.6920 H       1  ZINC000797321835    0.1500
     34 H34        -0.4065    3.3403   45.1887 H       1  ZINC000797321835    0.1600
     35 H35         1.2098    2.7996   43.3035 H       1  ZINC000797321835    0.1600
@<TRIPOS>BOND
     1     1     2    1
     2     1    24    1
     3     1    25    1
     4     1    26    1
     5     2     7    1
     6     2     3   am
     7     3     4    2
     8     3     5    1
     9     5     6    1
    10     5    27    1
    11     5    28    1
    12     6     7    1
    13     6    29    1
    14     6    30    1
    15     7     8    1
    16     7     9    1
    17     9    10    2
    18     9    11   am
    19    11    12    1
    20    11    31    1
    21    12    23   ar
    22    12    13   ar
    23    13    14   ar
    24    13    32    1
    25    14    15   ar
    26    14    33    1
    27    15    16    1
    28    15    22   ar
    29    16    21    1
    30    16    17    2
    31    17    18    1
    32    17    34    1
    33    18    19    2
    34    18    35    1
    35    19    20    1
    36    19    21    1
    37    22    23   ar
@<TRIPOS>SUBSTRUCTURE
     1 ZINC000797321835        1 TEMP              0 ****  ****    0 ROOT


##########                                Name:    ZINC000560467340
##########                DOCK_Rotatable_Bonds:                   7
##########                         Heavy_Atoms:                  24
##########                    Molecular_Weight:             369.481
##########                DOCK_Rotatable_Bonds:                   7
##########                       Formal_Charge:          -0.0199997
##########                     HBond_Acceptors:                   7
##########                        HBond_Donors:                   2
##########                         Heavy_Atoms:                  24
##########                          Grid_Score:          -28.478354
##########                     Grid_vdw_energy:          -29.313307
##########                      Grid_es_energy:            0.834953
##########           Internal_energy_repulsive:           28.228975

@<TRIPOS>MOLECULE
ZINC000560467340
 44 46 1 0 0
SMALL
USER_CHARGES


@<TRIPOS>ATOM
      1 O1         -5.0131    3.4160   48.9950 O.2     1  ZINC000560467340   -0.9600
      2 S2         -4.9760    2.2532   49.8109 S.o2    1  ZINC000560467340    2.7100
      3 O3         -5.9049    1.1853   49.6849 O.2     1  ZINC000560467340   -0.9500
      4 N4         -3.4715    1.5904   49.6122 N.am    1  ZINC000560467340   -1.0900
      5 C5         -2.2760    2.4097   49.8259 C.3     1  ZINC000560467340    0.1400
      6 C6         -1.1751    1.9675   48.8597 C.3     1  ZINC000560467340   -0.0500
      7 C7         -1.4963    2.4496   47.4437 C.3     1  ZINC000560467340   -0.0700
      8 C8         -0.5424    1.8110   46.4672 C.ar    1  ZINC000560467340   -0.0900
      9 C9         -0.8891    0.6325   45.8334 C.ar    1  ZINC000560467340   -0.0900
     10 C10        -0.0152    0.0459   44.9377 C.ar    1  ZINC000560467340   -0.1500
     11 C11         1.2079    0.6395   44.6751 C.ar    1  ZINC000560467340    0.1000
     12 F12         2.0628    0.0673   43.7994 F       1  ZINC000560467340   -0.1400
     13 C13         1.5538    1.8201   45.3102 C.ar    1  ZINC000560467340   -0.1500
     14 C14         0.6762    2.4074   46.2019 C.ar    1  ZINC000560467340   -0.0900
     15 C15        -1.0418    0.4308   48.8784 C.3     1  ZINC000560467340   -0.1300
     16 C16         0.4804    0.1799   48.7399 C.3     1  ZINC000560467340   -0.1200
     17 C17         1.0934    1.3188   49.5921 C.3     1  ZINC000560467340   -0.1600
     18 C18         0.1824    2.5321   49.3136 C.3     1  ZINC000560467340    0.1100
     19 H19         0.6128    3.1488   48.5247 H       1  ZINC000560467340    0.0600
     20 O20         0.0189    3.3050   50.5044 O.3     1  ZINC000560467340   -0.5500
     21 C21        -5.0836    2.8120   51.4785 C.2     1  ZINC000560467340   -0.6900
     22 C22        -4.6878    4.0292   51.8543 C.2     1  ZINC000560467340   -0.1000
     23 S23        -4.9464    4.2261   53.5828 S.3     1  ZINC000560467340    0.1500
     24 C24        -5.5967    2.5962   53.7015 C.2     1  ZINC000560467340   -0.2200
     25 C25        -5.5905    2.0234   52.4969 C.2     1  ZINC000560467340   -0.0700
     26 H26        -3.3818    0.6596   49.3544 H       1  ZINC000560467340    0.4200
     27 H27        -2.5170    3.4576   49.6470 H       1  ZINC000560467340    0.0600
     28 H28        -1.9298    2.2866   50.8521 H       1  ZINC000560467340    0.0800
     29 H29        -2.5186    2.1710   47.1881 H       1  ZINC000560467340    0.0800
     30 H30        -1.3925    3.5336   47.3967 H       1  ZINC000560467340    0.0800
     31 H31        -1.8431    0.1697   46.0384 H       1  ZINC000560467340    0.1300
     32 H32        -0.2859   -0.8752   44.4432 H       1  ZINC000560467340    0.1400
     33 H33         2.5077    2.2839   45.1064 H       1  ZINC000560467340    0.1400
     34 H34         0.9458    3.3285   46.6972 H       1  ZINC000560467340    0.1300
     35 H35        -1.4106    0.0272   49.8214 H       1  ZINC000560467340    0.0700
     36 H36        -1.5788   -0.0090   48.0380 H       1  ZINC000560467340    0.0800
     37 H37         0.7499   -0.7948   49.1465 H       1  ZINC000560467340    0.0700
     38 H38         0.7929    0.2652   47.6992 H       1  ZINC000560467340    0.0700
     39 H39         1.0694    1.0586   50.6503 H       1  ZINC000560467340    0.0800
     40 H40         2.1146    1.5270   49.2726 H       1  ZINC000560467340    0.0700
     41 H41        -0.5308    4.0923   50.3899 H       1  ZINC000560467340    0.3800
     42 H42        -4.2719    4.7789   51.1976 H       1  ZINC000560467340    0.1800
     43 H43        -5.9511    2.1320   54.6099 H       1  ZINC000560467340    0.1700
     44 H44        -5.9468    1.0175   52.3302 H       1  ZINC000560467340    0.1500
@<TRIPOS>BOND
     1     1     2    2
     2     2     3    2
     3     2     4   am
     4     2    21    1
     5     4     5    1
     6     4    26    1
     7     5     6    1
     8     5    27    1
     9     5    28    1
    10     6    18    1
    11     6     7    1
    12     6    15    1
    13     7     8    1
    14     7    29    1
    15     7    30    1
    16     8    14   ar
    17     8     9   ar
    18     9    10   ar
    19     9    31    1
    20    10    11   ar
    21    10    32    1
    22    11    12    1
    23    11    13   ar
    24    13    14   ar
    25    13    33    1
    26    14    34    1
    27    15    16    1
    28    15    35    1
    29    15    36    1
    30    16    17    1
    31    16    37    1
    32    16    38    1
    33    17    18    1
    34    17    39    1
    35    17    40    1
    36    18    19    1
    37    18    20    1
    38    20    41    1
    39    21    25    1
    40    21    22    2
    41    22    23    1
    42    22    42    1
    43    23    24    1
    44    24    25    2
    45    24    43    1
    46    25    44    1
@<TRIPOS>SUBSTRUCTURE
     1 ZINC000560467340        1 TEMP              0 ****  ****    0 ROOT


##########                                Name:    ZINC001344051361
##########                DOCK_Rotatable_Bonds:                   8
##########                         Heavy_Atoms:                  28
##########                    Molecular_Weight:             379.456
##########                DOCK_Rotatable_Bonds:                   8
##########                       Formal_Charge:          -0.0100006
##########                     HBond_Acceptors:                   5
##########                        HBond_Donors:                   0
##########                         Heavy_Atoms:                  28
##########                          Grid_Score:          -28.461302
##########                     Grid_vdw_energy:          -26.411158
##########                      Grid_es_energy:           -2.050144
##########           Internal_energy_repulsive:           24.494364

@<TRIPOS>MOLECULE
ZINC001344051361
 53 56 1 0 0
SMALL
USER_CHARGES


@<TRIPOS>ATOM
      1 O1         -8.6132   -2.5452   59.3644 O.2     1  ZINC001344051361   -0.4800
      2 C2         -9.0627   -1.4480   59.1319 C.2     1  ZINC001344051361    0.4800
      3 O3        -10.0569   -1.3048   58.2415 O.3     1  ZINC001344051361   -0.3500
      4 C4        -10.8985   -2.4634   58.0011 C.3     1  ZINC001344051361    0.0700
      5 C5        -12.3366   -2.0056   57.7491 C.3     1  ZINC001344051361   -0.1000
      6 H6        -12.3282   -1.0808   57.1723 H       1  ZINC001344051361    0.0900
      7 C7        -13.0876   -3.0872   56.9693 C.3     1  ZINC001344051361   -0.1200
      8 C8        -14.5164   -2.6165   56.6882 C.3     1  ZINC001344051361   -0.1300
      9 C9        -15.2440   -2.3847   58.0161 C.3     1  ZINC001344051361    0.0800
     10 N10       -14.4521   -1.4551   58.8332 N.am    1  ZINC001344051361   -0.6100
     11 C11       -15.0113   -0.3378   59.3387 C.2     1  ZINC001344051361    0.5600
     12 O12       -16.1813   -0.0913   59.1200 O.2     1  ZINC001344051361   -0.5300
     13 C13       -14.2016    0.5881   60.1591 C.ar    1  ZINC001344051361   -0.1300
     14 C14       -13.8658    0.2509   61.4712 C.ar    1  ZINC001344051361   -0.1000
     15 C15       -13.1096    1.1192   62.2313 C.ar    1  ZINC001344051361   -0.1300
     16 C16       -12.6847    2.3220   61.6956 C.ar    1  ZINC001344051361   -0.0900
     17 C17       -13.0145    2.6625   60.3958 C.ar    1  ZINC001344051361   -0.1300
     18 C18       -13.7649    1.8005   59.6229 C.ar    1  ZINC001344051361   -0.0600
     19 C19       -13.0392   -1.7661   59.0891 C.3     1  ZINC001344051361    0.1200
     20 C20        -8.5115   -0.2411   59.8463 C.3     1  ZINC001344051361    0.0200
     21 O21        -7.5703    0.5376   59.1046 O.3     1  ZINC001344051361   -0.2500
     22 C22        -8.0719    1.3776   58.1614 C.ar    1  ZINC001344051361    0.1200
     23 C23        -9.4437    1.5431   58.0371 C.ar    1  ZINC001344051361   -0.2000
     24 C24        -9.9510    2.3981   57.0778 C.ar    1  ZINC001344051361   -0.0800
     25 C25        -9.0928    3.0882   56.2417 C.ar    1  ZINC001344051361   -0.1500
     26 C26        -7.7253    2.9247   56.3634 C.ar    1  ZINC001344051361   -0.0800
     27 C27        -7.2127    2.0757   57.3252 C.ar    1  ZINC001344051361   -0.1400
     28 C28        -9.4467    0.5024   60.8021 C.3     1  ZINC001344051361   -0.1700
     29 C29        -8.3034   -0.3489   61.3582 C.3     1  ZINC001344051361   -0.1100
     30 H30       -10.5314   -3.0045   57.1291 H       1  ZINC001344051361    0.0800
     31 H31       -10.8730   -3.1180   58.8723 H       1  ZINC001344051361    0.0800
     32 H32       -12.5754   -3.2765   56.0259 H       1  ZINC001344051361    0.0700
     33 H33       -13.1166   -4.0047   57.5569 H       1  ZINC001344051361    0.0700
     34 H34       -14.4881   -1.6857   56.1216 H       1  ZINC001344051361    0.0700
     35 H35       -15.0435   -3.3774   56.1125 H       1  ZINC001344051361    0.0800
     36 H36       -16.2274   -1.9556   57.8240 H       1  ZINC001344051361    0.1100
     37 H37       -15.3532   -3.3325   58.5432 H       1  ZINC001344051361    0.0700
     38 H38       -14.1975   -0.6873   61.8907 H       1  ZINC001344051361    0.1400
     39 H39       -12.8490    0.8595   63.2467 H       1  ZINC001344051361    0.1300
     40 H40       -12.0933    2.9983   62.2949 H       1  ZINC001344051361    0.1300
     41 H41       -12.6800    3.6031   59.9838 H       1  ZINC001344051361    0.1300
     42 H42       -14.0214    2.0673   58.6083 H       1  ZINC001344051361    0.1300
     43 H43       -12.9681   -2.6635   59.7038 H       1  ZINC001344051361    0.0700
     44 H44       -12.5684   -0.9292   59.6051 H       1  ZINC001344051361    0.1000
     45 H45       -10.1144    1.0037   58.6894 H       1  ZINC001344051361    0.1300
     46 H46       -11.0189    2.5271   56.9806 H       1  ZINC001344051361    0.1300
     47 H47        -9.4914    3.7558   55.4921 H       1  ZINC001344051361    0.1300
     48 H48        -7.0570    3.4645   55.7089 H       1  ZINC001344051361    0.1300
     49 H49        -6.1445    1.9482   57.4198 H       1  ZINC001344051361    0.1300
     50 H50        -9.3442    1.5857   60.8653 H       1  ZINC001344051361    0.1200
     51 H51       -10.4606    0.1185   60.9142 H       1  ZINC001344051361    0.1200
     52 H52        -8.5652   -1.2928   61.8363 H       1  ZINC001344051361    0.1200
     53 H53        -7.4489    0.1744   61.7873 H       1  ZINC001344051361    0.1200
@<TRIPOS>BOND
     1     1     2    2
     2     2     3    1
     3     2    20    1
     4     3     4    1
     5     4     5    1
     6     4    30    1
     7     4    31    1
     8     5     6    1
     9     5    19    1
    10     5     7    1
    11     7     8    1
    12     7    32    1
    13     7    33    1
    14     8     9    1
    15     8    34    1
    16     8    35    1
    17     9    10    1
    18     9    36    1
    19     9    37    1
    20    10    11   am
    21    10    19    1
    22    11    12    2
    23    11    13    1
    24    13    18   ar
    25    13    14   ar
    26    14    15   ar
    27    14    38    1
    28    15    16   ar
    29    15    39    1
    30    16    17   ar
    31    16    40    1
    32    17    18   ar
    33    17    41    1
    34    18    42    1
    35    19    43    1
    36    19    44    1
    37    20    29    1
    38    20    21    1
    39    20    28    1
    40    21    22    1
    41    22    27   ar
    42    22    23   ar
    43    23    24   ar
    44    23    45    1
    45    24    25   ar
    46    24    46    1
    47    25    26   ar
    48    25    47    1
    49    26    27   ar
    50    26    48    1
    51    27    49    1
    52    28    29    1
    53    28    50    1
    54    28    51    1
    55    29    52    1
    56    29    53    1
@<TRIPOS>SUBSTRUCTURE
     1 ZINC001344051361        1 TEMP              0 ****  ****    0 ROOT


##########                                Name:    ZINC000269287897
##########                DOCK_Rotatable_Bonds:                   8
##########                         Heavy_Atoms:                  23
##########                    Molecular_Weight:             385.301
##########                DOCK_Rotatable_Bonds:                   8
##########                       Formal_Charge:           0.0300002
##########                     HBond_Acceptors:                   5
##########                        HBond_Donors:                   1
##########                         Heavy_Atoms:                  23
##########                          Grid_Score:          -28.458393
##########                     Grid_vdw_energy:          -27.435354
##########                      Grid_es_energy:           -1.023040
##########           Internal_energy_repulsive:            9.542450

@<TRIPOS>MOLECULE
ZINC000269287897
 48 49 1 0 0
SMALL
USER_CHARGES


@<TRIPOS>ATOM
      1 C1        -10.6413   -0.2510   52.4722 C.3     1  ZINC000269287897    0.0300
      2 O2         -9.4292   -0.0941   51.7317 O.3     1  ZINC000269287897   -0.3800
      3 C3         -8.3944    0.5832   52.4473 C.3     1  ZINC000269287897    0.0600
      4 C4         -8.3495    2.0496   52.0130 C.3     1  ZINC000269287897    0.0600
      5 O5         -7.3246    2.2250   51.0328 O.3     1  ZINC000269287897   -0.3800
      6 C6         -7.0080    3.5916   50.7609 C.3     1  ZINC000269287897    0.0700
      7 C7         -5.4927    3.7452   50.6164 C.3     1  ZINC000269287897   -0.1000
      8 H8         -5.2269    4.7768   50.3857 H       1  ZINC000269287897    0.1000
      9 C9         -4.7596    3.2540   51.8927 C.3     1  ZINC000269287897   -0.1200
     10 C10        -3.3739    2.8370   51.3565 C.3     1  ZINC000269287897    0.1000
     11 N11        -3.5247    2.5693   49.9188 N.am    1  ZINC000269287897   -0.6300
     12 C12        -2.5366    2.1967   49.0813 C.2     1  ZINC000269287897    0.7300
     13 O13        -2.7772    2.0025   47.9053 O.2     1  ZINC000269287897   -0.5600
     14 N14        -1.2818    2.0395   49.5473 N.am    1  ZINC000269287897   -0.6900
     15 C15        -0.2555    1.6525   48.6774 C.ar    1  ZINC000269287897    0.1800
     16 C16         0.0328    0.3068   48.4967 C.ar    1  ZINC000269287897   -0.0600
     17 C17        -0.7590   -0.7402   49.2369 C.3     1  ZINC000269287897   -0.1000
     18 C18         1.0459   -0.0720   47.6371 C.ar    1  ZINC000269287897   -0.0900
     19 C19         1.7727    0.8875   46.9570 C.ar    1  ZINC000269287897   -0.0800
     20 C20         2.8771    0.4702   46.0203 C.3     1  ZINC000269287897   -0.1100
     21 C21         1.4883    2.2293   47.1340 C.ar    1  ZINC000269287897   -0.0900
     22 C22         0.4732    2.6147   47.9885 C.ar    1  ZINC000269287897   -0.1000
     23 Br23        0.0842    4.4495   48.2297 Br      1  ZINC000269287897   -0.0500
     24 C24        -4.9361    2.7753   49.5443 C.3     1  ZINC000269287897    0.1400
     25 H25       -10.4433   -0.8289   53.3750 H       1  ZINC000269287897    0.0400
     26 H26       -11.0290    0.7300   52.7466 H       1  ZINC000269287897    0.0400
     27 H27       -11.3760   -0.7739   51.8600 H       1  ZINC000269287897    0.0900
     28 H28        -8.5958    0.5272   53.5171 H       1  ZINC000269287897    0.0600
     29 H29        -7.4356    0.1113   52.2330 H       1  ZINC000269287897    0.0600
     30 H30        -9.3122    2.3318   51.5866 H       1  ZINC000269287897    0.0700
     31 H31        -8.1368    2.6783   52.8776 H       1  ZINC000269287897    0.0600
     32 H32        -7.4944    3.9001   49.8354 H       1  ZINC000269287897    0.0600
     33 H33        -7.3598    4.2164   51.5820 H       1  ZINC000269287897    0.0500
     34 H34        -4.6652    4.0621   52.6182 H       1  ZINC000269287897    0.0900
     35 H35        -5.2769    2.4001   52.3300 H       1  ZINC000269287897    0.0800
     36 H36        -2.6585    3.6450   51.5101 H       1  ZINC000269287897    0.0700
     37 H37        -3.0343    1.9362   51.8677 H       1  ZINC000269287897    0.0700
     38 H38        -1.0898    2.1944   50.4854 H       1  ZINC000269287897    0.4100
     39 H39        -1.5394   -1.1336   48.5856 H       1  ZINC000269287897    0.0900
     40 H40        -0.0959   -1.5504   49.5399 H       1  ZINC000269287897    0.0600
     41 H41        -1.2145   -0.2936   50.1208 H       1  ZINC000269287897    0.0600
     42 H42         1.2706   -1.1190   47.4965 H       1  ZINC000269287897    0.1300
     43 H43         2.4704    0.3298   45.0188 H       1  ZINC000269287897    0.0700
     44 H44         3.6442    1.2442   45.9955 H       1  ZINC000269287897    0.0700
     45 H45         3.3153   -0.4648   46.3690 H       1  ZINC000269287897    0.0700
     46 H46         2.0579    2.9765   46.6013 H       1  ZINC000269287897    0.1400
     47 H47        -5.4777    1.8298   49.5714 H       1  ZINC000269287897    0.0700
     48 H48        -5.0041    3.2241   48.5533 H       1  ZINC000269287897    0.0900
@<TRIPOS>BOND
     1     1     2    1
     2     1    25    1
     3     1    26    1
     4     1    27    1
     5     2     3    1
     6     3     4    1
     7     3    28    1
     8     3    29    1
     9     4     5    1
    10     4    30    1
    11     4    31    1
    12     5     6    1
    13     6     7    1
    14     6    32    1
    15     6    33    1
    16     7     8    1
    17     7    24    1
    18     7     9    1
    19     9    10    1
    20     9    34    1
    21     9    35    1
    22    10    11    1
    23    10    36    1
    24    10    37    1
    25    11    12   am
    26    11    24    1
    27    12    13    2
    28    12    14   am
    29    14    15    1
    30    14    38    1
    31    15    22   ar
    32    15    16   ar
    33    16    17    1
    34    16    18   ar
    35    17    39    1
    36    17    40    1
    37    17    41    1
    38    18    19   ar
    39    18    42    1
    40    19    20    1
    41    19    21   ar
    42    20    43    1
    43    20    44    1
    44    20    45    1
    45    21    22   ar
    46    21    46    1
    47    22    23    1
    48    24    47    1
    49    24    48    1
@<TRIPOS>SUBSTRUCTURE
     1 ZINC000269287897        1 TEMP              0 ****  ****    0 ROOT


##########                                Name:    ZINC000432058199
##########                DOCK_Rotatable_Bonds:                   5
##########                         Heavy_Atoms:                  30
##########                    Molecular_Weight:             406.441
##########                DOCK_Rotatable_Bonds:                   5
##########                       Formal_Charge:        -4.02331e-07
##########                     HBond_Acceptors:                   8
##########                        HBond_Donors:                   1
##########                         Heavy_Atoms:                  30
##########                          Grid_Score:          -28.456264
##########                     Grid_vdw_energy:          -27.963778
##########                      Grid_es_energy:           -0.492488
##########           Internal_energy_repulsive:           14.851485

@<TRIPOS>MOLECULE
ZINC000432058199
 52 55 1 0 0
SMALL
USER_CHARGES


@<TRIPOS>ATOM
      1 C1        -14.1836    1.9146   49.4787 C.3     1  ZINC000432058199    0.0300
      2 O2        -14.5260    1.2559   50.6998 O.3     1  ZINC000432058199   -0.3100
      3 C3        -13.4992    0.8800   51.5069 C.ar    1  ZINC000432058199    0.1300
      4 C4        -12.1891    1.1395   51.1295 C.ar    1  ZINC000432058199   -0.1900
      5 C5        -11.1417    0.7589   51.9476 C.ar    1  ZINC000432058199   -0.0800
      6 C6        -11.3932    0.1185   53.1443 C.ar    1  ZINC000432058199   -0.1100
      7 C7        -12.7059   -0.1454   53.5308 C.ar    1  ZINC000432058199    0.0100
      8 C8        -12.9790   -0.8334   54.8174 C.2     1  ZINC000432058199    0.2100
      9 N9        -12.0876   -1.2928   55.6563 N.2     1  ZINC000432058199   -0.3700
     10 O10       -12.6367   -1.8002   56.6115 O.3     1  ZINC000432058199    0.1200
     11 C11       -13.9637   -1.7140   56.4757 C.2     1  ZINC000432058199    0.1600
     12 C12       -14.9977   -2.2238   57.4461 C.3     1  ZINC000432058199    0.2500
     13 H13       -15.1894   -3.2790   57.2517 H       1  ZINC000432058199    0.1500
     14 C14       -16.2941   -1.4297   57.2739 C.3     1  ZINC000432058199   -0.1700
     15 N15       -14.5040   -2.0614   58.8159 N.am    1  ZINC000432058199   -0.5800
     16 C16       -14.4827   -3.0399   59.7281 C.2     1  ZINC000432058199    0.7000
     17 O17       -14.8731   -4.1709   59.5149 O.2     1  ZINC000432058199   -0.5100
     18 N18       -13.9808   -2.6320   60.9076 N.am    1  ZINC000432058199   -0.7200
     19 C19       -13.6302   -1.2102   60.7473 C.3     1  ZINC000432058199    0.1400
     20 H20       -14.2063   -0.5930   61.4366 H       1  ZINC000432058199    0.1400
     21 C21       -12.1528   -1.0012   60.9592 C.ar    1  ZINC000432058199   -0.1000
     22 C22       -11.2392   -1.6828   60.1770 C.ar    1  ZINC000432058199   -0.1000
     23 C23        -9.8841   -1.4912   60.3714 C.ar    1  ZINC000432058199   -0.0800
     24 C24        -8.8881   -2.2345   59.5191 C.3     1  ZINC000432058199   -0.1200
     25 C25        -9.4426   -0.6172   61.3472 C.ar    1  ZINC000432058199   -0.1100
     26 C26       -10.3562    0.0647   62.1290 C.ar    1  ZINC000432058199   -0.0800
     27 C27        -9.8749    1.0171   63.1932 C.3     1  ZINC000432058199   -0.1200
     28 C28       -11.7113   -0.1238   61.9318 C.ar    1  ZINC000432058199   -0.1000
     29 C29       -14.0098   -0.9094   59.3109 C.2     1  ZINC000432058199    0.5300
     30 O30       -13.8976    0.1487   58.7299 O.2     1  ZINC000432058199   -0.4500
     31 N31       -14.1962   -1.0971   55.3439 N.2     1  ZINC000432058199   -0.4500
     32 C32       -13.7607    0.2428   52.7091 C.ar    1  ZINC000432058199   -0.1200
     33 H33       -15.0934    2.1598   48.9307 H       1  ZINC000432058199    0.1000
     34 H34       -13.6356    2.8302   49.7011 H       1  ZINC000432058199    0.0600
     35 H35       -13.5607    1.2564   48.8730 H       1  ZINC000432058199    0.0600
     36 H36       -11.9873    1.6399   50.1940 H       1  ZINC000432058199    0.1400
     37 H37       -10.1238    0.9627   51.6494 H       1  ZINC000432058199    0.1400
     38 H38       -10.5727   -0.1782   53.7809 H       1  ZINC000432058199    0.1400
     39 H39       -16.1025   -0.3745   57.4683 H       1  ZINC000432058199    0.0900
     40 H40       -16.6615   -1.5505   56.2548 H       1  ZINC000432058199    0.0900
     41 H41       -17.0420   -1.7985   57.9759 H       1  ZINC000432058199    0.0900
     42 H42       -13.8715   -3.1691   61.7079 H       1  ZINC000432058199    0.4500
     43 H43       -11.5842   -2.3652   59.4144 H       1  ZINC000432058199    0.1200
     44 H44        -8.6587   -1.6456   58.6310 H       1  ZINC000432058199    0.0700
     45 H45        -7.9748   -2.4019   60.0900 H       1  ZINC000432058199    0.0700
     46 H46        -9.3104   -3.1937   59.2198 H       1  ZINC000432058199    0.0700
     47 H47        -8.3839   -0.4675   61.4990 H       1  ZINC000432058199    0.1300
     48 H48        -9.7696    2.0148   62.7671 H       1  ZINC000432058199    0.0700
     49 H49       -10.5967    1.0447   64.0094 H       1  ZINC000432058199    0.0700
     50 H50        -8.9101    0.6803   63.5726 H       1  ZINC000432058199    0.0700
     51 H51       -12.4251    0.4090   62.5426 H       1  ZINC000432058199    0.1300
     52 H52       -14.7797    0.0406   53.0043 H       1  ZINC000432058199    0.1400
@<TRIPOS>BOND
     1     1     2    1
     2     1    33    1
     3     1    34    1
     4     1    35    1
     5     2     3    1
     6     3    32   ar
     7     3     4   ar
     8     4     5   ar
     9     4    36    1
    10     5     6   ar
    11     5    37    1
    12     6     7   ar
    13     6    38    1
    14     7     8    1
    15     7    32   ar
    16     8    31    1
    17     8     9    2
    18     9    10    1
    19    10    11    1
    20    11    12    1
    21    11    31    2
    22    12    13    1
    23    12    14    1
    24    12    15    1
    25    14    39    1
    26    14    40    1
    27    14    41    1
    28    15    29   am
    29    15    16   am
    30    16    17    2
    31    16    18   am
    32    18    19    1
    33    18    42    1
    34    19    20    1
    35    19    21    1
    36    19    29    1
    37    21    28   ar
    38    21    22   ar
    39    22    23   ar
    40    22    43    1
    41    23    24    1
    42    23    25   ar
    43    24    44    1
    44    24    45    1
    45    24    46    1
    46    25    26   ar
    47    25    47    1
    48    26    27    1
    49    26    28   ar
    50    27    48    1
    51    27    49    1
    52    27    50    1
    53    28    51    1
    54    29    30    2
    55    32    52    1
@<TRIPOS>SUBSTRUCTURE
     1 ZINC000432058199        1 TEMP              0 ****  ****    0 ROOT


##########                                Name:    ZINC000542980334
##########                DOCK_Rotatable_Bonds:                   6
##########                         Heavy_Atoms:                  27
##########                    Molecular_Weight:             404.795
##########                DOCK_Rotatable_Bonds:                   6
##########                       Formal_Charge:           0.0300001
##########                     HBond_Acceptors:                  10
##########                        HBond_Donors:                   1
##########                         Heavy_Atoms:                  27
##########                          Grid_Score:          -28.456095
##########                     Grid_vdw_energy:          -25.247421
##########                      Grid_es_energy:           -3.208673
##########           Internal_energy_repulsive:           14.054964

@<TRIPOS>MOLECULE
ZINC000542980334
 44 46 1 0 0
SMALL
USER_CHARGES


@<TRIPOS>ATOM
      1 O1         -4.5596    2.8925   48.6674 O.2     1  ZINC000542980334   -0.5800
      2 C2         -4.2630    2.5298   49.7894 C.2     1  ZINC000542980334    0.7100
      3 N3         -3.2046    1.7169   49.9771 N.am    1  ZINC000542980334   -0.7400
      4 C4         -2.4149    1.2653   48.8287 C.3     1  ZINC000542980334    0.1800
      5 C5         -0.9515    1.2794   49.1885 C.ar    1  ZINC000542980334   -0.1400
      6 C6         -0.3147    2.4798   49.4517 C.ar    1  ZINC000542980334    0.1300
      7 F7         -1.0047    3.6396   49.3863 F       1  ZINC000542980334   -0.1200
      8 C8          1.0299    2.4913   49.7827 C.ar    1  ZINC000542980334   -0.1500
      9 C9          1.7352    1.3049   49.8500 C.ar    1  ZINC000542980334   -0.0700
     10 C10         1.0992    0.1060   49.5871 C.ar    1  ZINC000542980334   -0.1200
     11 C11        -0.2454    0.0921   49.2614 C.ar    1  ZINC000542980334    0.0100
     12 Cl12       -1.0432   -1.4140   48.9320 Cl      1  ZINC000542980334   -0.0400
     13 N13        -4.9894    2.9452   50.8459 N.am    1  ZINC000542980334   -0.6300
     14 C14        -4.6399    2.5204   52.2082 C.3     1  ZINC000542980334    0.1100
     15 C15        -5.8783    1.9028   52.8651 C.3     1  ZINC000542980334   -0.1300
     16 C16        -7.0380    2.8989   52.7955 C.3     1  ZINC000542980334   -0.1300
     17 C17        -7.3671    3.1998   51.3315 C.3     1  ZINC000542980334    0.1400
     18 H18        -7.6266    2.2734   50.8191 H       1  ZINC000542980334    0.1100
     19 N19        -8.4983    4.1284   51.2655 N.pl3   1  ZINC000542980334   -0.3400
     20 C20        -8.7257    5.0346   50.2916 C.2     1  ZINC000542980334    0.0600
     21 C21        -9.8677    5.6923   50.5987 C.2     1  ZINC000542980334   -0.2300
     22 C22       -10.3549    5.1701   51.8014 C.2     1  ZINC000542980334   -0.0200
     23 C23       -11.6080    5.6112   52.5129 C.3     1  ZINC000542980334    0.5600
     24 F24       -11.4510    5.4275   53.8909 F       1  ZINC000542980334   -0.1700
     25 F25       -11.8437    6.9643   52.2467 F       1  ZINC000542980334   -0.1700
     26 F26       -12.6925    4.8514   52.0617 F       1  ZINC000542980334   -0.1600
     27 N27        -9.5380    4.2286   52.1988 N.2     1  ZINC000542980334   -0.2300
     28 C28        -6.1421    3.8366   50.6578 C.3     1  ZINC000542980334    0.1300
     29 H29        -2.9656    1.4307   50.8726 H       1  ZINC000542980334    0.4000
     30 H30        -2.7129    0.2522   48.5587 H       1  ZINC000542980334    0.0900
     31 H31        -2.5878    1.9322   47.9840 H       1  ZINC000542980334    0.0900
     32 H32         1.5276    3.4276   49.9879 H       1  ZINC000542980334    0.1500
     33 H33         2.7839    1.3144   50.1079 H       1  ZINC000542980334    0.1500
     34 H34         1.6513   -0.8207   49.6396 H       1  ZINC000542980334    0.1500
     35 H35        -3.8408    1.7801   52.1664 H       1  ZINC000542980334    0.0800
     36 H36        -4.3112    3.3834   52.7872 H       1  ZINC000542980334    0.0800
     37 H37        -6.1519    0.9885   52.3383 H       1  ZINC000542980334    0.0800
     38 H38        -5.6598    1.6710   53.9075 H       1  ZINC000542980334    0.0900
     39 H39        -7.9137    2.4715   53.2841 H       1  ZINC000542980334    0.0800
     40 H40        -6.7547    3.8220   53.3011 H       1  ZINC000542980334    0.0800
     41 H41        -8.1069    5.2047   49.4230 H       1  ZINC000542980334    0.1900
     42 H42       -10.3224    6.4813   50.0181 H       1  ZINC000542980334    0.1600
     43 H43        -5.9386    4.8066   51.1114 H       1  ZINC000542980334    0.0800
     44 H44        -6.3352    3.9624   49.5924 H       1  ZINC000542980334    0.1100
@<TRIPOS>BOND
     1     1     2    2
     2     2     3   am
     3     2    13   am
     4     3     4    1
     5     3    29    1
     6     4     5    1
     7     4    30    1
     8     4    31    1
     9     5    11   ar
    10     5     6   ar
    11     6     7    1
    12     6     8   ar
    13     8     9   ar
    14     8    32    1
    15     9    10   ar
    16     9    33    1
    17    10    11   ar
    18    10    34    1
    19    11    12    1
    20    13    28    1
    21    13    14    1
    22    14    15    1
    23    14    35    1
    24    14    36    1
    25    15    16    1
    26    15    37    1
    27    15    38    1
    28    16    17    1
    29    16    39    1
    30    16    40    1
    31    17    18    1
    32    17    19    1
    33    17    28    1
    34    19    27    1
    35    19    20    1
    36    20    21    2
    37    20    41    1
    38    21    22    1
    39    21    42    1
    40    22    23    1
    41    22    27    2
    42    23    24    1
    43    23    25    1
    44    23    26    1
    45    28    43    1
    46    28    44    1
@<TRIPOS>SUBSTRUCTURE
     1 ZINC000542980334        1 TEMP              0 ****  ****    0 ROOT


##########                                Name:    ZINC000464706598
##########                DOCK_Rotatable_Bonds:                   4
##########                         Heavy_Atoms:                  26
##########                    Molecular_Weight:             412.286
##########                DOCK_Rotatable_Bonds:                   4
##########                       Formal_Charge:           0.0100001
##########                     HBond_Acceptors:                   5
##########                        HBond_Donors:                   0
##########                         Heavy_Atoms:                  26
##########                          Grid_Score:          -28.454325
##########                     Grid_vdw_energy:          -28.106939
##########                      Grid_es_energy:           -0.347386
##########           Internal_energy_repulsive:           58.904327

@<TRIPOS>MOLECULE
ZINC000464706598
 44 47 1 0 0
SMALL
USER_CHARGES


@<TRIPOS>ATOM
      1 O1         -2.6023    1.1023   48.7250 O.2     1  ZINC000464706598   -0.5000
      2 C2         -2.7850    1.9839   49.5425 C.2     1  ZINC000464706598    0.5900
      3 C3         -4.1551    2.4349   49.8465 C.2     1  ZINC000464706598   -0.2800
      4 C4         -4.7988    2.3368   51.0640 C.2     1  ZINC000464706598    0.1300
      5 N5         -6.0272    2.8642   50.9127 N.pl3   1  ZINC000464706598   -0.3100
      6 C6         -7.0058    2.9616   51.9115 C.ar    1  ZINC000464706598    0.1700
      7 C7         -8.2598    3.4753   51.6087 C.ar    1  ZINC000464706598   -0.1300
      8 C8         -9.2224    3.5698   52.5945 C.ar    1  ZINC000464706598   -0.0600
      9 C9         -8.9380    3.1536   53.8831 C.ar    1  ZINC000464706598   -0.1000
     10 Br10      -10.2582    3.2851   55.2305 Br      1  ZINC000464706598   -0.0400
     11 C11        -7.6893    2.6410   54.1873 C.ar    1  ZINC000464706598   -0.0700
     12 C12        -6.7249    2.5394   53.2040 C.ar    1  ZINC000464706598   -0.1100
     13 N13        -6.1624    3.2997   49.5897 N.2     1  ZINC000464706598   -0.2800
     14 C14        -5.0532    3.0542   48.9481 C.2     1  ZINC000464706598    0.0700
     15 N15        -1.7351    2.5447   50.1748 N.am    1  ZINC000464706598   -0.6100
     16 C16        -1.9316    3.6085   51.1723 C.3     1  ZINC000464706598    0.0400
     17 C17        -1.0067    4.7790   50.8193 C.3     1  ZINC000464706598    0.0500
     18 O18         0.3288    4.2935   50.6639 O.3     1  ZINC000464706598   -0.3700
     19 C19         0.4897    3.3545   49.5979 C.3     1  ZINC000464706598    0.0500
     20 C20        -0.3588    2.1070   49.8923 C.3     1  ZINC000464706598    0.1600
     21 H21         0.0493    1.5808   50.7553 H       1  ZINC000464706598    0.0900
     22 C22        -0.3537    1.1950   48.6927 C.ar    1  ZINC000464706598   -0.0500
     23 C23        -0.4482    1.7264   47.4200 C.ar    1  ZINC000464706598   -0.1000
     24 C24        -0.4435    0.8898   46.3196 C.ar    1  ZINC000464706598   -0.1100
     25 C25        -0.3440   -0.4782   46.4918 C.ar    1  ZINC000464706598   -0.1200
     26 C26        -0.2487   -1.0095   47.7644 C.ar    1  ZINC000464706598   -0.1100
     27 C27        -0.2489   -0.1726   48.8646 C.ar    1  ZINC000464706598   -0.1000
     28 H28        -4.3917    1.9139   51.9705 H       1  ZINC000464706598    0.1900
     29 H29        -8.4821    3.8009   50.6032 H       1  ZINC000464706598    0.1400
     30 H30       -10.1979    3.9693   52.3596 H       1  ZINC000464706598    0.1500
     31 H31        -7.4699    2.3165   55.1937 H       1  ZINC000464706598    0.1500
     32 H32        -5.7505    2.1389   53.4418 H       1  ZINC000464706598    0.1500
     33 H33        -4.8579    3.2789   47.9100 H       1  ZINC000464706598    0.2100
     34 H34        -2.9692    3.9420   51.1538 H       1  ZINC000464706598    0.1200
     35 H35        -1.6842    3.2315   52.1646 H       1  ZINC000464706598    0.0800
     36 H36        -1.3384    5.2370   49.8875 H       1  ZINC000464706598    0.0600
     37 H37        -1.0343    5.5188   51.6194 H       1  ZINC000464706598    0.1100
     38 H38         0.1635    3.8072   48.6615 H       1  ZINC000464706598    0.0600
     39 H39         1.5388    3.0693   49.5191 H       1  ZINC000464706598    0.1100
     40 H40        -0.5259    2.7952   47.2855 H       1  ZINC000464706598    0.1100
     41 H41        -0.5180    1.3049   45.3254 H       1  ZINC000464706598    0.1200
     42 H42        -0.3411   -1.1318   45.6321 H       1  ZINC000464706598    0.1200
     43 H43        -0.1713   -2.0783   47.8990 H       1  ZINC000464706598    0.1200
     44 H44        -0.1745   -0.5877   49.8589 H       1  ZINC000464706598    0.1100
@<TRIPOS>BOND
     1     1     2    2
     2     2     3    1
     3     2    15   am
     4     3    14    1
     5     3     4    2
     6     4     5    1
     7     4    28    1
     8     5     6    1
     9     5    13    1
    10     6    12   ar
    11     6     7   ar
    12     7     8   ar
    13     7    29    1
    14     8     9   ar
    15     8    30    1
    16     9    10    1
    17     9    11   ar
    18    11    12   ar
    19    11    31    1
    20    12    32    1
    21    13    14    2
    22    14    33    1
    23    15    20    1
    24    15    16    1
    25    16    17    1
    26    16    34    1
    27    16    35    1
    28    17    18    1
    29    17    36    1
    30    17    37    1
    31    18    19    1
    32    19    20    1
    33    19    38    1
    34    19    39    1
    35    20    21    1
    36    20    22    1
    37    22    27   ar
    38    22    23   ar
    39    23    24   ar
    40    23    40    1
    41    24    25   ar
    42    24    41    1
    43    25    26   ar
    44    25    42    1
    45    26    27   ar
    46    26    43    1
    47    27    44    1
@<TRIPOS>SUBSTRUCTURE
     1 ZINC000464706598        1 TEMP              0 ****  ****    0 ROOT


##########                                Name:    ZINC000979274057
##########                DOCK_Rotatable_Bonds:                   6
##########                         Heavy_Atoms:                  24
##########                    Molecular_Weight:              330.39
##########                DOCK_Rotatable_Bonds:                   6
##########                       Formal_Charge:          0.00999946
##########                     HBond_Acceptors:                   8
##########                        HBond_Donors:                   1
##########                         Heavy_Atoms:                  24
##########                          Grid_Score:          -28.420996
##########                     Grid_vdw_energy:          -26.447714
##########                      Grid_es_energy:           -1.973282
##########           Internal_energy_repulsive:           18.398966

@<TRIPOS>MOLECULE
ZINC000979274057
 46 48 1 0 0
SMALL
USER_CHARGES


@<TRIPOS>ATOM
      1 C1         -2.1121    6.3152   53.1495 C.3     1  ZINC000979274057   -0.1400
      2 C2         -2.3193    4.8099   52.9709 C.3     1  ZINC000979274057    0.1000
      3 H3         -3.3859    4.5857   52.9850 H       1  ZINC000979274057    0.0600
      4 N4         -1.6533    4.0906   54.0651 N.3     1  ZINC000979274057   -0.6700
      5 C5         -1.5898    4.9181   55.2772 C.3     1  ZINC000979274057    0.1300
      6 C6         -0.9018    4.1487   56.3752 C.ar    1  ZINC000979274057    0.3200
      7 N7          0.0180    3.2602   56.0565 N.ar    1  ZINC000979274057   -0.5200
      8 C8          0.6433    2.5658   56.9935 C.ar    1  ZINC000979274057    0.1500
      9 C9          0.3192    2.7836   58.3234 C.ar    1  ZINC000979274057   -0.2300
     10 C10        -0.6531    3.7260   58.6190 C.ar    1  ZINC000979274057    0.1500
     11 N11        -1.2320    4.3862   57.6289 N.ar    1  ZINC000979274057   -0.5000
     12 C12        -1.7230    4.3682   51.6329 C.3     1  ZINC000979274057    0.0800
     13 H13        -1.7462    5.2018   50.9311 H       1  ZINC000979274057    0.0700
     14 C14        -2.5405    3.2007   51.0684 C.3     1  ZINC000979274057    0.0800
     15 N15        -1.8422    2.6747   49.8848 N.am    1  ZINC000979274057   -0.6000
     16 C16        -2.4935    2.4924   48.7190 C.2     1  ZINC000979274057    0.6100
     17 O17        -3.6761    2.7635   48.6344 O.2     1  ZINC000979274057   -0.5400
     18 C18        -1.7731    1.9648   47.5473 C.2     1  ZINC000979274057   -0.0600
     19 C19        -1.4700    0.6563   47.3090 C.2     1  ZINC000979274057    0.0400
     20 N20        -0.8090    0.6148   46.1283 N.pl3   1  ZINC000979274057   -0.4600
     21 C21        -0.2880   -0.5866   45.4716 C.3     1  ZINC000979274057    0.0700
     22 C22        -0.7158    1.8871   45.6614 C.2     1  ZINC000979274057    0.1900
     23 N23        -1.2950    2.6916   46.5051 N.2     1  ZINC000979274057   -0.4600
     24 C24        -0.4117    2.3540   50.0113 C.3     1  ZINC000979274057    0.0500
     25 C25         0.3021    3.5628   50.6274 C.3     1  ZINC000979274057    0.0500
     26 O26        -0.3711    3.9462   51.8287 O.3     1  ZINC000979274057   -0.3600
     27 H27        -2.5370    6.6298   54.1028 H       1  ZINC000979274057    0.0600
     28 H28        -1.0455    6.5393   53.1356 H       1  ZINC000979274057    0.0700
     29 H29        -2.6062    6.8489   52.3377 H       1  ZINC000979274057    0.0600
     30 H30        -2.1116    3.2111   54.2513 H       1  ZINC000979274057    0.3500
     31 H31        -1.0299    5.8292   55.0661 H       1  ZINC000979274057    0.1000
     32 H32        -2.6002    5.1776   55.5933 H       1  ZINC000979274057    0.0600
     33 H33         1.3958    1.8389   56.7257 H       1  ZINC000979274057    0.1700
     34 H34         0.8121    2.2320   59.1102 H       1  ZINC000979274057    0.1500
     35 H35        -0.9317    3.9220   59.6439 H       1  ZINC000979274057    0.1700
     36 H36        -2.6292    2.4170   51.8208 H       1  ZINC000979274057    0.0700
     37 H37        -3.5326    3.5510   50.7838 H       1  ZINC000979274057    0.1000
     38 H38        -1.7109   -0.1855   47.9412 H       1  ZINC000979274057    0.1900
     39 H39        -1.0514   -1.0008   44.8130 H       1  ZINC000979274057    0.0800
     40 H40         0.5946   -0.3274   44.8868 H       1  ZINC000979274057    0.0900
     41 H41        -0.0194   -1.3258   46.2263 H       1  ZINC000979274057    0.0900
     42 H42        -0.2413    2.1829   44.7374 H       1  ZINC000979274057    0.2100
     43 H43        -0.2859    1.4850   50.6573 H       1  ZINC000979274057    0.0700
     44 H44         0.0059    2.1436   49.0268 H       1  ZINC000979274057    0.1500
     45 H45         1.3343    3.2979   50.8571 H       1  ZINC000979274057    0.1100
     46 H46         0.2871    4.3931   49.9214 H       1  ZINC000979274057    0.0500
@<TRIPOS>BOND
     1     1     2    1
     2     1    27    1
     3     1    28    1
     4     1    29    1
     5     2     3    1
     6     2     4    1
     7     2    12    1
     8     4     5    1
     9     4    30    1
    10     5     6    1
    11     5    31    1
    12     5    32    1
    13     6    11   ar
    14     6     7   ar
    15     7     8   ar
    16     8     9   ar
    17     8    33    1
    18     9    10   ar
    19     9    34    1
    20    10    11   ar
    21    10    35    1
    22    12    13    1
    23    12    26    1
    24    12    14    1
    25    14    15    1
    26    14    36    1
    27    14    37    1
    28    15    16   am
    29    15    24    1
    30    16    17    2
    31    16    18    1
    32    18    23    1
    33    18    19    2
    34    19    20    1
    35    19    38    1
    36    20    21    1
    37    20    22    1
    38    21    39    1
    39    21    40    1
    40    21    41    1
    41    22    23    2
    42    22    42    1
    43    24    25    1
    44    24    43    1
    45    24    44    1
    46    25    26    1
    47    25    45    1
    48    25    46    1
@<TRIPOS>SUBSTRUCTURE
     1 ZINC000979274057        1 TEMP              0 ****  ****    0 ROOT


##########                                Name:    ZINC001513543414
##########                DOCK_Rotatable_Bonds:                   6
##########                         Heavy_Atoms:                  26
##########                    Molecular_Weight:             364.488
##########                DOCK_Rotatable_Bonds:                   6
##########                       Formal_Charge:         -0.00999974
##########                     HBond_Acceptors:                   7
##########                        HBond_Donors:                   0
##########                         Heavy_Atoms:                  26
##########                          Grid_Score:          -28.412333
##########                     Grid_vdw_energy:          -27.969976
##########                      Grid_es_energy:           -0.442357
##########           Internal_energy_repulsive:           19.276226

@<TRIPOS>MOLECULE
ZINC001513543414
 58 61 1 0 0
SMALL
USER_CHARGES


@<TRIPOS>ATOM
      1 C1         -8.8768    1.1640   57.6957 C.3     1  ZINC001513543414   -0.1500
      2 C2         -7.9170    2.3543   57.6442 C.3     1  ZINC001513543414   -0.1200
      3 C3         -8.2955    3.2645   56.4742 C.3     1  ZINC001513543414    0.1100
      4 C4         -9.5796    4.0279   56.8050 C.3     1  ZINC001513543414   -0.1500
      5 C5         -7.1498    4.2603   56.1932 C.3     1  ZINC001513543414   -0.1500
      6 C6         -7.1379    4.3197   54.6413 C.3     1  ZINC001513543414   -0.1500
      7 C7         -7.5332    2.8638   54.2881 C.3     1  ZINC001513543414    0.0700
      8 H8         -6.6591    2.2139   54.3296 H       1  ZINC001513543414    0.0800
      9 C9         -8.1695    2.8086   52.8978 C.3     1  ZINC001513543414    0.1100
     10 N10        -8.3282    1.4109   52.4885 N.pl3   1  ZINC001513543414   -0.4600
     11 C11        -7.4144    0.6343   51.8316 C.2     1  ZINC001513543414    0.1900
     12 C12        -6.0383    1.0575   51.3864 C.3     1  ZINC001513543414    0.1800
     13 H13        -5.4208    0.1823   51.1847 H       1  ZINC001513543414    0.1000
     14 C14        -6.1327    1.9516   50.1244 C.3     1  ZINC001513543414   -0.1500
     15 C15        -4.8094    2.7571   50.2342 C.3     1  ZINC001513543414   -0.1500
     16 C16        -4.6464    2.9130   51.7615 C.3     1  ZINC001513543414    0.0500
     17 O17        -5.4220    1.8825   52.3879 O.3     1  ZINC001513543414   -0.3500
     18 N18        -7.9537   -0.5398   51.6628 N.2     1  ZINC001513543414   -0.2600
     19 N19        -9.1368   -0.5576   52.1644 N.2     1  ZINC001513543414   -0.3100
     20 C20        -9.4163    0.6123   52.6890 C.2     1  ZINC001513543414    0.3400
     21 N21       -10.5968    0.9715   53.3198 N.3     1  ZINC001513543414   -0.4500
     22 C22       -10.8233    0.1498   54.5278 C.3     1  ZINC001513543414    0.0500
     23 C23       -12.3613   -0.0144   54.6119 C.3     1  ZINC001513543414   -0.1500
     24 C24       -12.7448   -0.1454   53.1144 C.3     1  ZINC001513543414    0.0700
     25 H25       -12.6054   -1.1698   52.7690 H       1  ZINC001513543414    0.0800
     26 O26       -14.0920    0.2798   52.8988 O.3     1  ZINC001513543414   -0.3800
     27 C27       -14.4830    0.2973   51.5244 C.3     1  ZINC001513543414    0.0300
     28 C28       -11.7501    0.8059   52.4164 C.3     1  ZINC001513543414    0.0600
     29 O29        -8.4876    2.4804   55.2909 O.3     1  ZINC001513543414   -0.3600
     30 H30        -8.6071    0.5156   58.5293 H       1  ZINC001513543414    0.0500
     31 H31        -9.8963    1.5250   57.8314 H       1  ZINC001513543414    0.0500
     32 H32        -8.8109    0.6035   56.7632 H       1  ZINC001513543414    0.0600
     33 H33        -7.9829    2.9149   58.5767 H       1  ZINC001513543414    0.0700
     34 H34        -6.8975    1.9934   57.5087 H       1  ZINC001513543414    0.0600
     35 H35        -9.4183    4.6440   57.6896 H       1  ZINC001513543414    0.0700
     36 H36        -9.8508    4.6649   55.9631 H       1  ZINC001513543414    0.0600
     37 H37       -10.3844    3.3187   56.9980 H       1  ZINC001513543414    0.0700
     38 H38        -7.3736    5.2391   56.6172 H       1  ZINC001513543414    0.0900
     39 H39        -6.2022    3.8788   56.5739 H       1  ZINC001513543414    0.0800
     40 H40        -7.8778    5.0288   54.2698 H       1  ZINC001513543414    0.0800
     41 H41        -6.1434    4.5592   54.2649 H       1  ZINC001513543414    0.0900
     42 H42        -9.1459    3.2922   52.9256 H       1  ZINC001513543414    0.1000
     43 H43        -7.5281    3.3256   52.1840 H       1  ZINC001513543414    0.1100
     44 H44        -6.1515    1.3488   49.2164 H       1  ZINC001513543414    0.0900
     45 H45        -6.9992    2.6109   50.1740 H       1  ZINC001513543414    0.0900
     46 H46        -3.9769    2.1952   49.8106 H       1  ZINC001513543414    0.0800
     47 H47        -4.9066    3.7304   49.7531 H       1  ZINC001513543414    0.0900
     48 H48        -3.5971    2.8018   52.0346 H       1  ZINC001513543414    0.0700
     49 H49        -5.0094    3.8921   52.0740 H       1  ZINC001513543414    0.0700
     50 H50       -10.3431   -0.8229   54.4207 H       1  ZINC001513543414    0.0600
     51 H51       -10.4476    0.6641   55.4125 H       1  ZINC001513543414    0.0900
     52 H52       -12.6282   -0.9158   55.1636 H       1  ZINC001513543414    0.0800
     53 H53       -12.8242    0.8659   55.0580 H       1  ZINC001513543414    0.0900
     54 H54       -15.5177    0.6307   51.4452 H       1  ZINC001513543414    0.0900
     55 H55       -13.8378    0.9802   50.9719 H       1  ZINC001513543414    0.0400
     56 H56       -14.3916   -0.7059   51.1079 H       1  ZINC001513543414    0.0400
     57 H57       -12.2234    1.7716   52.2383 H       1  ZINC001513543414    0.1000
     58 H58       -11.4222    0.3714   51.4720 H       1  ZINC001513543414    0.0900
@<TRIPOS>BOND
     1     1     2    1
     2     1    30    1
     3     1    31    1
     4     1    32    1
     5     2     3    1
     6     2    33    1
     7     2    34    1
     8     3    29    1
     9     3     4    1
    10     3     5    1
    11     4    35    1
    12     4    36    1
    13     4    37    1
    14     5     6    1
    15     5    38    1
    16     5    39    1
    17     6     7    1
    18     6    40    1
    19     6    41    1
    20     7     8    1
    21     7     9    1
    22     7    29    1
    23     9    10    1
    24     9    42    1
    25     9    43    1
    26    10    20    1
    27    10    11    1
    28    11    12    1
    29    11    18    2
    30    12    13    1
    31    12    17    1
    32    12    14    1
    33    14    15    1
    34    14    44    1
    35    14    45    1
    36    15    16    1
    37    15    46    1
    38    15    47    1
    39    16    17    1
    40    16    48    1
    41    16    49    1
    42    18    19    1
    43    19    20    2
    44    20    21    1
    45    21    28    1
    46    21    22    1
    47    22    23    1
    48    22    50    1
    49    22    51    1
    50    23    24    1
    51    23    52    1
    52    23    53    1
    53    24    25    1
    54    24    26    1
    55    24    28    1
    56    26    27    1
    57    27    54    1
    58    27    55    1
    59    27    56    1
    60    28    57    1
    61    28    58    1
@<TRIPOS>SUBSTRUCTURE
     1 ZINC001513543414        1 TEMP              0 ****  ****    0 ROOT


##########                                Name:    ZINC000558052810
##########                DOCK_Rotatable_Bonds:                   9
##########                         Heavy_Atoms:                  30
##########                    Molecular_Weight:             424.524
##########                DOCK_Rotatable_Bonds:                   9
##########                       Formal_Charge:          -0.0200002
##########                     HBond_Acceptors:                   8
##########                        HBond_Donors:                   1
##########                         Heavy_Atoms:                  30
##########                          Grid_Score:          -28.398958
##########                     Grid_vdw_energy:          -27.759186
##########                      Grid_es_energy:           -0.639773
##########           Internal_energy_repulsive:           16.619022

@<TRIPOS>MOLECULE
ZINC000558052810
 54 56 1 0 0
SMALL
USER_CHARGES


@<TRIPOS>ATOM
      1 C1        -10.0565   -0.4838   52.7890 C.3     1  ZINC000558052810   -0.1700
      2 C2         -9.4881    0.8847   53.1697 C.3     1  ZINC000558052810    0.1100
      3 N3        -10.4642    1.9270   52.8423 N.am    1  ZINC000558052810   -0.6100
      4 C4        -11.3945    1.7352   51.7270 C.3     1  ZINC000558052810    0.0700
      5 C5        -10.5063    3.0623   53.5674 C.2     1  ZINC000558052810    0.5600
      6 O6        -11.3160    3.9273   53.2958 O.2     1  ZINC000558052810   -0.5300
      7 C7         -9.5674    3.2558   54.6932 C.ar    1  ZINC000558052810   -0.1100
      8 C8         -8.3788    3.9617   54.5003 C.ar    1  ZINC000558052810   -0.1100
      9 C9         -7.5040    4.1409   55.5527 C.ar    1  ZINC000558052810   -0.1000
     10 C10        -7.8001    3.6228   56.7994 C.ar    1  ZINC000558052810   -0.1300
     11 C11        -8.9809    2.9179   57.0017 C.ar    1  ZINC000558052810    0.1400
     12 N12        -9.2757    2.3952   58.2653 N.am    1  ZINC000558052810   -0.6600
     13 C13        -8.4734    1.4602   58.8117 C.2     1  ZINC000558052810    0.5600
     14 O14        -7.4930    1.0711   58.2062 O.2     1  ZINC000558052810   -0.4800
     15 C15        -8.7839    0.9096   60.1428 C.ar    1  ZINC000558052810   -0.1900
     16 C16        -8.4055    1.5941   61.3033 C.ar    1  ZINC000558052810   -0.0200
     17 C17        -8.7206    1.0347   62.5290 C.ar    1  ZINC000558052810   -0.1900
     18 C18        -9.3939   -0.1731   62.5744 C.ar    1  ZINC000558052810    0.1500
     19 N19        -9.7421   -0.8038   61.4701 N.ar    1  ZINC000558052810   -0.4900
     20 C20        -9.4712   -0.3108   60.2705 C.ar    1  ZINC000558052810    0.1600
     21 S21        -9.9601   -1.1967   58.8279 S.3     1  ZINC000558052810    0.0600
     22 C22       -11.6968   -0.6972   58.7258 C.3     1  ZINC000558052810   -0.0700
     23 C23       -12.5282   -1.8632   58.2567 C.2     1  ZINC000558052810   -0.2000
     24 C24       -13.5442   -2.4785   58.9077 C.2     1  ZINC000558052810   -0.0100
     25 C25       -14.0827   -2.1322   60.2719 C.3     1  ZINC000558052810   -0.0800
     26 O26       -13.9761   -3.4564   58.0990 O.3     1  ZINC000558052810    0.1000
     27 N27       -13.3468   -3.4901   57.0670 N.2     1  ZINC000558052810   -0.3600
     28 C28       -12.4326   -2.5641   57.0326 C.2     1  ZINC000558052810    0.0300
     29 C29       -11.4587   -2.2980   55.9137 C.3     1  ZINC000558052810   -0.0800
     30 C30        -9.8692    2.7383   55.9529 C.ar    1  ZINC000558052810   -0.0700
     31 H31       -10.9778   -0.6618   53.3437 H       1  ZINC000558052810    0.0600
     32 H32       -10.2663   -0.5055   51.7196 H       1  ZINC000558052810    0.0600
     33 H33        -9.3303   -1.2593   53.0326 H       1  ZINC000558052810    0.0700
     34 H34        -9.2783    0.9063   54.2391 H       1  ZINC000558052810    0.0800
     35 H35        -8.5668    1.0625   52.6150 H       1  ZINC000558052810    0.0800
     36 H36       -12.2660    1.1791   52.0724 H       1  ZINC000558052810    0.0600
     37 H37       -11.7105    2.7064   51.3463 H       1  ZINC000558052810    0.0800
     38 H38       -10.8990    1.1772   50.9325 H       1  ZINC000558052810    0.0700
     39 H39        -8.1435    4.3674   53.5275 H       1  ZINC000558052810    0.1400
     40 H40        -6.5848    4.6873   55.4014 H       1  ZINC000558052810    0.1400
     41 H41        -7.1114    3.7660   57.6190 H       1  ZINC000558052810    0.1300
     42 H42       -10.0576    2.7056   58.7482 H       1  ZINC000558052810    0.4100
     43 H43        -7.8799    2.5358   61.2436 H       1  ZINC000558052810    0.1400
     44 H44        -8.4426    1.5371   63.4437 H       1  ZINC000558052810    0.1500
     45 H45        -9.6387   -0.6077   63.5323 H       1  ZINC000558052810    0.1700
     46 H46       -12.0413   -0.3776   59.7093 H       1  ZINC000558052810    0.1000
     47 H47       -11.7968    0.1276   58.0201 H       1  ZINC000558052810    0.1000
     48 H48       -14.8819   -1.3978   60.1713 H       1  ZINC000558052810    0.0900
     49 H49       -14.4736   -3.0317   60.7473 H       1  ZINC000558052810    0.0900
     50 H50       -13.2821   -1.7163   60.8837 H       1  ZINC000558052810    0.0900
     51 H51       -11.8960   -1.5869   55.2128 H       1  ZINC000558052810    0.0800
     52 H52       -10.5379   -1.8840   56.3244 H       1  ZINC000558052810    0.0800
     53 H53       -11.2379   -3.2308   55.3947 H       1  ZINC000558052810    0.0800
     54 H54       -10.7874    2.1912   56.1081 H       1  ZINC000558052810    0.1500
@<TRIPOS>BOND
     1     1     2    1
     2     1    31    1
     3     1    32    1
     4     1    33    1
     5     2     3    1
     6     2    34    1
     7     2    35    1
     8     3     4    1
     9     3     5   am
    10     4    36    1
    11     4    37    1
    12     4    38    1
    13     5     6    2
    14     5     7    1
    15     7    30   ar
    16     7     8   ar
    17     8     9   ar
    18     8    39    1
    19     9    10   ar
    20     9    40    1
    21    10    11   ar
    22    10    41    1
    23    11    12    1
    24    11    30   ar
    25    12    13   am
    26    12    42    1
    27    13    14    2
    28    13    15    1
    29    15    20   ar
    30    15    16   ar
    31    16    17   ar
    32    16    43    1
    33    17    18   ar
    34    17    44    1
    35    18    19   ar
    36    18    45    1
    37    19    20   ar
    38    20    21    1
    39    21    22    1
    40    22    23    1
    41    22    46    1
    42    22    47    1
    43    23    28    1
    44    23    24    2
    45    24    25    1
    46    24    26    1
    47    25    48    1
    48    25    49    1
    49    25    50    1
    50    26    27    1
    51    27    28    2
    52    28    29    1
    53    29    51    1
    54    29    52    1
    55    29    53    1
    56    30    54    1
@<TRIPOS>SUBSTRUCTURE
     1 ZINC000558052810        1 TEMP              0 ****  ****    0 ROOT


##########                                Name:    ZINC000265786263
##########                DOCK_Rotatable_Bonds:                   7
##########                         Heavy_Atoms:                  28
##########                    Molecular_Weight:             386.451
##########                DOCK_Rotatable_Bonds:                   7
##########                       Formal_Charge:           0.0499992
##########                     HBond_Acceptors:                   8
##########                        HBond_Donors:                   2
##########                         Heavy_Atoms:                  28
##########                          Grid_Score:          -28.379389
##########                     Grid_vdw_energy:          -26.012373
##########                      Grid_es_energy:           -2.367016
##########           Internal_energy_repulsive:           25.606516

@<TRIPOS>MOLECULE
ZINC000265786263
 54 57 1 0 0
SMALL
USER_CHARGES


@<TRIPOS>ATOM
      1 C1          2.7330    0.6204   43.7761 C.3     1  ZINC000265786263   -0.1500
      2 C2          1.7731    0.9949   44.9073 C.3     1  ZINC000265786263    0.1600
      3 C3          1.3464    2.4592   44.7863 C.3     1  ZINC000265786263   -0.1600
      4 C4         -0.1095    2.7999   45.1104 C.3     1  ZINC000265786263   -0.1600
      5 C5          1.0044    3.2043   46.0780 C.3     1  ZINC000265786263   -0.1600
      6 N6          0.5975    0.1073   44.9045 N.am    1  ZINC000265786263   -0.7100
      7 C7          0.6009   -0.5395   46.0841 C.2     1  ZINC000265786263    0.7100
      8 O8         -0.2396   -1.3546   46.4102 O.2     1  ZINC000265786263   -0.5400
      9 N9          1.6329   -0.1851   46.8583 N.am    1  ZINC000265786263   -0.5600
     10 C10         1.8851   -0.7308   48.1943 C.3     1  ZINC000265786263    0.1000
     11 C11         1.9322    0.3943   49.1958 C.2     1  ZINC000265786263    0.5100
     12 O12         2.9953    0.8948   49.4961 O.2     1  ZINC000265786263   -0.5300
     13 N13         0.7929    0.8444   49.7578 N.am    1  ZINC000265786263   -0.6100
     14 C14         0.8155    1.9466   50.7313 C.3     1  ZINC000265786263    0.1100
     15 C15        -0.2031    3.0043   50.2930 C.3     1  ZINC000265786263    0.0400
     16 N16        -1.5140    2.3686   50.1048 N.3     1  ZINC000265786263   -0.5300
     17 C17        -2.5550    3.3737   49.8519 C.3     1  ZINC000265786263    0.0900
     18 C18        -3.8942    2.8274   50.2752 C.ar    1  ZINC000265786263   -0.0600
     19 C19        -4.9973    2.9939   49.4589 C.ar    1  ZINC000265786263   -0.1300
     20 C20        -6.2276    2.4938   49.8444 C.ar    1  ZINC000265786263   -0.1000
     21 C21        -6.3570    1.8264   51.0468 C.ar    1  ZINC000265786263   -0.1400
     22 C22        -5.2513    1.6581   51.8680 C.ar    1  ZINC000265786263    0.1100
     23 O23        -5.3760    1.0016   53.0513 O.3     1  ZINC000265786263   -0.5000
     24 C24        -4.0172    2.1558   51.4764 C.ar    1  ZINC000265786263   -0.1200
     25 C25        -1.4726    1.3711   49.0273 C.3     1  ZINC000265786263    0.0400
     26 C26        -0.5067    0.2506   49.4091 C.3     1  ZINC000265786263    0.1200
     27 C27         2.4124    0.7353   46.2570 C.2     1  ZINC000265786263    0.5400
     28 O28         3.4164    1.2484   46.7025 O.2     1  ZINC000265786263   -0.4500
     29 H29         2.9958   -0.4344   43.8569 H       1  ZINC000265786263    0.0700
     30 H30         2.2511    0.8023   42.8156 H       1  ZINC000265786263    0.0800
     31 H31         3.6359    1.2265   43.8502 H       1  ZINC000265786263    0.0900
     32 H32         1.8316    3.0260   43.9916 H       1  ZINC000265786263    0.1100
     33 H33        -0.5826    3.5911   44.5287 H       1  ZINC000265786263    0.1000
     34 H34        -0.7634    1.9809   45.4097 H       1  ZINC000265786263    0.1100
     35 H35         1.0833    2.6515   47.0141 H       1  ZINC000265786263    0.1000
     36 H36         1.2641    4.2616   46.1330 H       1  ZINC000265786263    0.1000
     37 H37        -0.0526    0.0087   44.1915 H       1  ZINC000265786263    0.4400
     38 H38         1.0854   -1.4217   48.4614 H       1  ZINC000265786263    0.1300
     39 H39         2.8381   -1.2597   48.1968 H       1  ZINC000265786263    0.1300
     40 H40         0.5492    1.5688   51.7185 H       1  ZINC000265786263    0.0900
     41 H41         1.8117    2.3880   50.7616 H       1  ZINC000265786263    0.0900
     42 H42        -0.2795    3.7753   51.0597 H       1  ZINC000265786263    0.0900
     43 H43         0.1210    3.4545   49.3548 H       1  ZINC000265786263    0.0400
     44 H44        -2.3343    4.2765   50.4215 H       1  ZINC000265786263    0.0900
     45 H45        -2.5794    3.6120   48.7886 H       1  ZINC000265786263    0.0500
     46 H46        -4.8982    3.5156   48.5184 H       1  ZINC000265786263    0.1200
     47 H47        -7.0879    2.6253   49.2050 H       1  ZINC000265786263    0.1300
     48 H48        -7.3181    1.4364   51.3476 H       1  ZINC000265786263    0.1300
     49 H49        -4.5512    0.9316   53.5512 H       1  ZINC000265786263    0.3900
     50 H50        -3.1551    2.0260   52.1139 H       1  ZINC000265786263    0.1300
     51 H51        -2.4698    0.9576   48.8758 H       1  ZINC000265786263    0.1000
     52 H52        -1.1309    1.8441   48.1067 H       1  ZINC000265786263    0.0400
     53 H53        -0.3855   -0.4311   48.5672 H       1  ZINC000265786263    0.1000
     54 H54        -0.8973   -0.2922   50.2699 H       1  ZINC000265786263    0.0800
@<TRIPOS>BOND
     1     1     2    1
     2     1    29    1
     3     1    30    1
     4     1    31    1
     5     2    27    1
     6     2     3    1
     7     2     6    1
     8     3     5    1
     9     3     4    1
    10     3    32    1
    11     4     5    1
    12     4    33    1
    13     4    34    1
    14     5    35    1
    15     5    36    1
    16     6     7   am
    17     6    37    1
    18     7     8    2
    19     7     9   am
    20     9    10    1
    21     9    27   am
    22    10    11    1
    23    10    38    1
    24    10    39    1
    25    11    12    2
    26    11    13   am
    27    13    26    1
    28    13    14    1
    29    14    15    1
    30    14    40    1
    31    14    41    1
    32    15    16    1
    33    15    42    1
    34    15    43    1
    35    16    17    1
    36    16    25    1
    37    17    18    1
    38    17    44    1
    39    17    45    1
    40    18    24   ar
    41    18    19   ar
    42    19    20   ar
    43    19    46    1
    44    20    21   ar
    45    20    47    1
    46    21    22   ar
    47    21    48    1
    48    22    23    1
    49    22    24   ar
    50    23    49    1
    51    24    50    1
    52    25    26    1
    53    25    51    1
    54    25    52    1
    55    26    53    1
    56    26    54    1
    57    27    28    2
@<TRIPOS>SUBSTRUCTURE
     1 ZINC000265786263        1 TEMP              0 ****  ****    0 ROOT


##########                                Name:    ZINC000176150038
##########                DOCK_Rotatable_Bonds:                   4
##########                         Heavy_Atoms:                  23
##########                    Molecular_Weight:             333.712
##########                DOCK_Rotatable_Bonds:                   4
##########                       Formal_Charge:        -2.23517e-07
##########                     HBond_Acceptors:                  10
##########                        HBond_Donors:                   1
##########                         Heavy_Atoms:                  23
##########                          Grid_Score:          -28.360468
##########                     Grid_vdw_energy:          -28.312119
##########                      Grid_es_energy:           -0.048350
##########           Internal_energy_repulsive:           15.437989

@<TRIPOS>MOLECULE
ZINC000176150038
 32 34 1 0 0
SMALL
USER_CHARGES


@<TRIPOS>ATOM
      1 C1         -1.0047   -0.6085   48.7259 C.3     1  ZINC000176150038   -0.0900
      2 C2         -1.2172    0.4946   47.7214 C.2     1  ZINC000176150038    0.2600
      3 N3         -1.0534    0.4065   46.4272 N.2     1  ZINC000176150038   -0.3300
      4 N4         -1.3185    1.5277   45.8600 N.2     1  ZINC000176150038   -0.0300
      5 N5         -1.6666    2.4016   46.7420 N.2     1  ZINC000176150038   -0.0700
      6 N6         -1.6177    1.7561   47.9900 N.pl3   1  ZINC000176150038   -0.3300
      7 C7         -1.9137    2.3066   49.2462 C.ar    1  ZINC000176150038    0.1400
      8 C8         -0.8879    2.7559   50.0665 C.ar    1  ZINC000176150038   -0.1000
      9 C9         -1.1775    3.2988   51.3041 C.ar    1  ZINC000176150038   -0.1100
     10 C10        -2.4898    3.3962   51.7292 C.ar    1  ZINC000176150038    0.1000
     11 F11        -2.7701    3.9278   52.9392 F       1  ZINC000176150038   -0.1200
     12 C12        -3.5217    2.9473   50.9107 C.ar    1  ZINC000176150038    0.1300
     13 N13        -4.8499    3.0455   51.3402 N.am    1  ZINC000176150038   -0.6500
     14 C14        -5.5944    1.9318   51.4877 C.2     1  ZINC000176150038    0.5700
     15 O15        -5.1124    0.8425   51.2480 O.2     1  ZINC000176150038   -0.4800
     16 C16        -7.0023    2.0359   51.9429 C.ar    1  ZINC000176150038    0.1400
     17 N17        -7.4997    3.2040   52.3432 N.ar    1  ZINC000176150038   -0.4800
     18 C18        -8.7479    3.3005   52.7472 C.ar    1  ZINC000176150038    0.3000
     19 N19        -9.5555    2.2581   52.7745 N.ar    1  ZINC000176150038   -0.4800
     20 C20        -9.1395    1.0628   52.3934 C.ar    1  ZINC000176150038    0.1700
     21 C21        -7.8305    0.9110   51.9533 C.ar    1  ZINC000176150038   -0.1000
     22 Cl22       -7.2363   -0.6379   51.4418 Cl      1  ZINC000176150038    0.0100
     23 C23        -3.2322    2.4071   49.6664 C.ar    1  ZINC000176150038   -0.0800
     24 H24        -1.9339   -1.1626   48.8591 H       1  ZINC000176150038    0.1100
     25 H25        -0.2278   -1.2831   48.3659 H       1  ZINC000176150038    0.1100
     26 H26        -0.6987   -0.1777   49.6792 H       1  ZINC000176150038    0.0900
     27 H27         0.1380    2.6807   49.7373 H       1  ZINC000176150038    0.1500
     28 H28        -0.3775    3.6474   51.9405 H       1  ZINC000176150038    0.1600
     29 H29        -5.2346    3.9151   51.5316 H       1  ZINC000176150038    0.4300
     30 H30        -9.1224    4.2619   53.0663 H       1  ZINC000176150038    0.2200
     31 H31        -9.8094    0.2161   52.4199 H       1  ZINC000176150038    0.1900
     32 H32        -4.0312    2.0579   49.0291 H       1  ZINC000176150038    0.1700
@<TRIPOS>BOND
     1     1     2    1
     2     1    24    1
     3     1    25    1
     4     1    26    1
     5     2     6    1
     6     2     3    2
     7     3     4    1
     8     4     5    2
     9     5     6    1
    10     6     7    1
    11     7    23   ar
    12     7     8   ar
    13     8     9   ar
    14     8    27    1
    15     9    10   ar
    16     9    28    1
    17    10    11    1
    18    10    12   ar
    19    12    13    1
    20    12    23   ar
    21    13    14   am
    22    13    29    1
    23    14    15    2
    24    14    16    1
    25    16    21   ar
    26    16    17   ar
    27    17    18   ar
    28    18    19   ar
    29    18    30    1
    30    19    20   ar
    31    20    21   ar
    32    20    31    1
    33    21    22    1
    34    23    32    1
@<TRIPOS>SUBSTRUCTURE
     1 ZINC000176150038        1 TEMP              0 ****  ****    0 ROOT


##########                                Name:    ZINC000446721380
##########                DOCK_Rotatable_Bonds:                   8
##########                         Heavy_Atoms:                  26
##########                    Molecular_Weight:             419.318
##########                DOCK_Rotatable_Bonds:                   8
##########                       Formal_Charge:           0.0199992
##########                     HBond_Acceptors:                   5
##########                        HBond_Donors:                   2
##########                         Heavy_Atoms:                  26
##########                          Grid_Score:          -28.336016
##########                     Grid_vdw_energy:          -28.733986
##########                      Grid_es_energy:            0.397970
##########           Internal_energy_repulsive:            8.721933

@<TRIPOS>MOLECULE
ZINC000446721380
 49 51 1 0 0
SMALL
USER_CHARGES


@<TRIPOS>ATOM
      1 C1          2.6065    1.4156   49.6979 C.3     1  ZINC000446721380   -0.1200
      2 C2          1.1069    1.5379   49.6120 C.ar    1  ZINC000446721380   -0.0300
      3 C3          0.3643    0.5302   49.0253 C.ar    1  ZINC000446721380   -0.1600
      4 C4         -1.0119    0.6395   48.9449 C.ar    1  ZINC000446721380   -0.0500
      5 C5         -1.6480    1.7563   49.4509 C.ar    1  ZINC000446721380   -0.1500
      6 C6         -3.1478    1.8745   49.3634 C.3     1  ZINC000446721380    0.1900
      7 N7         -3.7481    1.4101   50.6164 N.am    1  ZINC000446721380   -0.7300
      8 C8         -5.0857    1.4487   50.7776 C.2     1  ZINC000446721380    0.7100
      9 O9         -5.7941    1.8674   49.8826 O.2     1  ZINC000446721380   -0.5700
     10 N10        -5.6379    1.0229   51.9310 N.am    1  ZINC000446721380   -0.6900
     11 C11        -7.0271    1.0629   52.0986 C.ar    1  ZINC000446721380    0.2000
     12 C12        -7.7892   -0.0729   51.8620 C.ar    1  ZINC000446721380   -0.1200
     13 C13        -9.1601   -0.0305   52.0286 C.ar    1  ZINC000446721380   -0.0800
     14 C14        -9.7735    1.1415   52.4306 C.ar    1  ZINC000446721380   -0.1300
     15 C15        -9.0176    2.2753   52.6669 C.ar    1  ZINC000446721380   -0.0700
     16 C16        -7.6456    2.2381   52.5076 C.ar    1  ZINC000446721380   -0.1300
     17 Br17       -6.6126    3.7885   52.8315 Br      1  ZINC000446721380   -0.0500
     18 C18        -0.9048    2.7691   50.0403 C.ar    1  ZINC000446721380    0.1500
     19 O19        -1.5283    3.8687   50.5392 O.3     1  ZINC000446721380   -0.3100
     20 C20        -2.0131    3.7868   51.8809 C.3     1  ZINC000446721380    0.0700
     21 C21        -1.3262    4.8524   52.7374 C.3     1  ZINC000446721380   -0.1200
     22 H22        -1.0548    5.7140   52.1274 H       1  ZINC000446721380    0.1000
     23 C23        -0.0740    4.2645   53.4324 C.3     1  ZINC000446721380   -0.1500
     24 C24        -0.1583    4.8988   54.8442 C.3     1  ZINC000446721380    0.0500
     25 O25        -1.5749    4.9122   55.1232 O.3     1  ZINC000446721380   -0.3800
     26 C26        -2.2411    5.2817   53.9007 C.3     1  ZINC000446721380    0.0500
     27 C27         0.4750    2.6545   50.1246 C.ar    1  ZINC000446721380   -0.2100
     28 H28         2.8777    0.9172   50.6286 H       1  ZINC000446721380    0.0800
     29 H29         2.9724    0.8320   48.8531 H       1  ZINC000446721380    0.0700
     30 H30         3.0540    2.4092   49.6741 H       1  ZINC000446721380    0.0700
     31 H31         0.8598   -0.3436   48.6287 H       1  ZINC000446721380    0.1300
     32 H32        -1.5898   -0.1489   48.4858 H       1  ZINC000446721380    0.1300
     33 H33        -3.4208    2.9160   49.1937 H       1  ZINC000446721380    0.0800
     34 H34        -3.5128    1.2640   48.5374 H       1  ZINC000446721380    0.0800
     35 H35        -3.1830    1.0749   51.3300 H       1  ZINC000446721380    0.4000
     36 H36        -5.0727    0.6888   52.6451 H       1  ZINC000446721380    0.4100
     37 H37        -7.3111   -0.9888   51.5475 H       1  ZINC000446721380    0.1500
     38 H38        -9.7534   -0.9139   51.8441 H       1  ZINC000446721380    0.1300
     39 H39       -10.8452    1.1718   52.5601 H       1  ZINC000446721380    0.1300
     40 H40        -9.4998    3.1895   52.9802 H       1  ZINC000446721380    0.1400
     41 H41        -3.0904    3.9533   51.8887 H       1  ZINC000446721380    0.0700
     42 H42        -1.7953    2.7987   52.2863 H       1  ZINC000446721380    0.0700
     43 H43        -0.1352    3.1777   53.4900 H       1  ZINC000446721380    0.0800
     44 H44         0.8368    4.5748   52.9204 H       1  ZINC000446721380    0.0900
     45 H45         0.3707    4.2849   55.5730 H       1  ZINC000446721380    0.1000
     46 H46         0.2403    5.9133   54.8336 H       1  ZINC000446721380    0.0600
     47 H47        -2.3971    6.3601   53.8749 H       1  ZINC000446721380    0.0600
     48 H48        -3.1982    4.7649   53.8294 H       1  ZINC000446721380    0.0900
     49 H49         1.0556    3.4415   50.5829 H       1  ZINC000446721380    0.1300
@<TRIPOS>BOND
     1     1     2    1
     2     1    28    1
     3     1    29    1
     4     1    30    1
     5     2    27   ar
     6     2     3   ar
     7     3     4   ar
     8     3    31    1
     9     4     5   ar
    10     4    32    1
    11     5     6    1
    12     5    18   ar
    13     6     7    1
    14     6    33    1
    15     6    34    1
    16     7     8   am
    17     7    35    1
    18     8     9    2
    19     8    10   am
    20    10    11    1
    21    10    36    1
    22    11    16   ar
    23    11    12   ar
    24    12    13   ar
    25    12    37    1
    26    13    14   ar
    27    13    38    1
    28    14    15   ar
    29    14    39    1
    30    15    16   ar
    31    15    40    1
    32    16    17    1
    33    18    19    1
    34    18    27   ar
    35    19    20    1
    36    20    21    1
    37    20    41    1
    38    20    42    1
    39    21    22    1
    40    21    26    1
    41    21    23    1
    42    23    24    1
    43    23    43    1
    44    23    44    1
    45    24    25    1
    46    24    45    1
    47    24    46    1
    48    25    26    1
    49    26    47    1
    50    26    48    1
    51    27    49    1
@<TRIPOS>SUBSTRUCTURE
     1 ZINC000446721380        1 TEMP              0 ****  ****    0 ROOT


##########                                Name:    ZINC001085817863
##########                DOCK_Rotatable_Bonds:                   7
##########                         Heavy_Atoms:                  24
##########                    Molecular_Weight:             326.442
##########                DOCK_Rotatable_Bonds:                   7
##########                       Formal_Charge:           0.0299998
##########                     HBond_Acceptors:                   5
##########                        HBond_Donors:                   0
##########                         Heavy_Atoms:                  24
##########                          Grid_Score:          -28.321177
##########                     Grid_vdw_energy:          -28.519255
##########                      Grid_es_energy:            0.198077
##########           Internal_energy_repulsive:           18.185982

@<TRIPOS>MOLECULE
ZINC001085817863
 50 52 1 0 0
SMALL
USER_CHARGES


@<TRIPOS>ATOM
      1 C1        -15.0493   -2.5192   56.6413 C.3     1  ZINC001085817863   -0.1400
      2 C2        -13.5991   -2.9367   56.8932 C.3     1  ZINC001085817863   -0.0700
      3 C3        -13.0353   -2.1306   58.0349 C.2     1  ZINC001085817863    0.1100
      4 C4        -12.0232   -1.2151   57.9447 C.2     1  ZINC001085817863   -0.2400
      5 C5        -11.2835   -0.8302   56.7309 C.2     1  ZINC001085817863    0.6000
      6 O6        -10.4505   -1.5823   56.2622 O.2     1  ZINC001085817863   -0.5300
      7 N7        -11.5296    0.3557   56.1394 N.am    1  ZINC001085817863   -0.6100
      8 C8        -12.5329    1.2616   56.7039 C.3     1  ZINC001085817863    0.0800
      9 C9        -10.7937    0.7386   54.9319 C.3     1  ZINC001085817863    0.1300
     10 C10       -11.0888   -0.2646   53.8151 C.3     1  ZINC001085817863    0.0100
     11 H11       -10.7558   -1.2740   54.0565 H       1  ZINC001085817863    0.0800
     12 C12       -12.5353   -0.2035   53.3046 C.3     1  ZINC001085817863   -0.1400
     13 C13       -11.8785   -0.4201   51.9341 C.3     1  ZINC001085817863    0.0000
     14 N14       -10.6539    0.1947   52.4828 N.3     1  ZINC001085817863   -0.4400
     15 C15        -9.4562   -0.5311   52.0391 C.3     1  ZINC001085817863    0.0700
     16 C16        -8.2877    0.4185   51.9769 C.ar    1  ZINC001085817863   -0.1300
     17 C17        -7.1031    0.0348   51.3675 C.ar    1  ZINC001085817863   -0.0700
     18 C18        -6.0546    0.9417   51.3334 C.ar    1  ZINC001085817863   -0.1700
     19 C19        -6.2241    2.1889   51.9037 C.ar    1  ZINC001085817863    0.1000
     20 N20        -7.3657    2.5198   52.4753 N.ar    1  ZINC001085817863   -0.4800
     21 C21        -8.3855    1.6852   52.5216 C.ar    1  ZINC001085817863    0.1200
     22 C22       -11.8240   -0.6935   59.3011 C.2     1  ZINC001085817863   -0.1900
     23 C23       -12.7161   -1.3256   60.0842 C.2     1  ZINC001085817863   -0.0200
     24 N24       -13.4462   -2.1851   59.3160 N.pl3   1  ZINC001085817863   -0.4400
     25 C25       -14.5172   -3.0509   59.8156 C.3     1  ZINC001085817863    0.0600
     26 H26       -15.4571   -3.1022   55.8155 H       1  ZINC001085817863    0.0600
     27 H27       -15.6403   -2.6985   57.5394 H       1  ZINC001085817863    0.0500
     28 H28       -15.0837   -1.4591   56.3895 H       1  ZINC001085817863    0.0600
     29 H29       -13.5647   -3.9966   57.1450 H       1  ZINC001085817863    0.0600
     30 H30       -13.0081   -2.7573   55.9950 H       1  ZINC001085817863    0.1100
     31 H31       -12.2628    1.5086   57.7306 H       1  ZINC001085817863    0.0700
     32 H32       -12.5739    2.1742   56.1094 H       1  ZINC001085817863    0.0700
     33 H33       -13.5087    0.7760   56.6919 H       1  ZINC001085817863    0.0600
     34 H34       -11.1050    1.7347   54.6173 H       1  ZINC001085817863    0.0800
     35 H35        -9.7244    0.7422   55.1438 H       1  ZINC001085817863    0.1000
     36 H36       -13.1608   -1.0324   53.6357 H       1  ZINC001085817863    0.0800
     37 H37       -13.0096    0.7707   53.4232 H       1  ZINC001085817863    0.1000
     38 H38       -11.7558   -1.4710   51.6725 H       1  ZINC001085817863    0.0700
     39 H39       -12.3374    0.1629   51.1356 H       1  ZINC001085817863    0.0800
     40 H40        -9.2356   -1.3331   52.7436 H       1  ZINC001085817863    0.0900
     41 H41        -9.6333   -0.9544   51.0504 H       1  ZINC001085817863    0.0500
     42 H42        -6.9992   -0.9472   50.9302 H       1  ZINC001085817863    0.1300
     43 H43        -5.1172    0.6765   50.8672 H       1  ZINC001085817863    0.1300
     44 H44        -5.4122    2.9008   51.8816 H       1  ZINC001085817863    0.1600
     45 H45        -9.3048    1.9917   52.9983 H       1  ZINC001085817863    0.1500
     46 H46       -11.1040    0.0500   59.6096 H       1  ZINC001085817863    0.1600
     47 H47       -12.8376   -1.1747   61.1467 H       1  ZINC001085817863    0.1600
     48 H48       -15.4684   -2.5215   59.7593 H       1  ZINC001085817863    0.0800
     49 H49       -14.5676   -3.9541   59.2075 H       1  ZINC001085817863    0.0900
     50 H50       -14.3125   -3.3211   60.8515 H       1  ZINC001085817863    0.0900
@<TRIPOS>BOND
     1     1     2    1
     2     1    26    1
     3     1    27    1
     4     1    28    1
     5     2     3    1
     6     2    29    1
     7     2    30    1
     8     3    24    1
     9     3     4    2
    10     4     5    1
    11     4    22    1
    12     5     6    2
    13     5     7   am
    14     7     8    1
    15     7     9    1
    16     8    31    1
    17     8    32    1
    18     8    33    1
    19     9    10    1
    20     9    34    1
    21     9    35    1
    22    10    11    1
    23    10    14    1
    24    10    12    1
    25    12    13    1
    26    12    36    1
    27    12    37    1
    28    13    14    1
    29    13    38    1
    30    13    39    1
    31    14    15    1
    32    15    16    1
    33    15    40    1
    34    15    41    1
    35    16    21   ar
    36    16    17   ar
    37    17    18   ar
    38    17    42    1
    39    18    19   ar
    40    18    43    1
    41    19    20   ar
    42    19    44    1
    43    20    21   ar
    44    21    45    1
    45    22    23    2
    46    22    46    1
    47    23    24    1
    48    23    47    1
    49    24    25    1
    50    25    48    1
    51    25    49    1
    52    25    50    1
@<TRIPOS>SUBSTRUCTURE
     1 ZINC001085817863        1 TEMP              0 ****  ****    0 ROOT


##########                                Name:    ZINC000906038034
##########                DOCK_Rotatable_Bonds:                   5
##########                         Heavy_Atoms:                  23
##########                    Molecular_Weight:             387.428
##########                DOCK_Rotatable_Bonds:                   5
##########                       Formal_Charge:         -0.00999987
##########                     HBond_Acceptors:                  12
##########                        HBond_Donors:                   0
##########                         Heavy_Atoms:                  23
##########                          Grid_Score:          -28.320686
##########                     Grid_vdw_energy:          -28.779192
##########                      Grid_es_energy:            0.458506
##########           Internal_energy_repulsive:            6.782067

@<TRIPOS>MOLECULE
ZINC000906038034
 35 36 1 0 0
SMALL
USER_CHARGES


@<TRIPOS>ATOM
      1 C1         -7.6061    1.1832   51.8330 C.3     1  ZINC000906038034    0.1000
      2 N2         -6.3320    1.8145   51.4802 N.pl3   1  ZINC000906038034   -0.3700
      3 C3         -5.9892    3.0979   51.7246 C.2     1  ZINC000906038034    0.0600
      4 C4         -4.7404    3.2944   51.2501 C.2     1  ZINC000906038034   -0.2500
      5 C5         -4.2951    2.0795   50.6894 C.2     1  ZINC000906038034    0.1200
      6 C6         -2.9801    1.8438   50.0549 C.2     1  ZINC000906038034    0.1500
      7 N7         -2.5966    0.7287   49.5025 N.2     1  ZINC000906038034   -0.4300
      8 C8         -1.3889    0.7027   48.9861 C.2     1  ZINC000906038034    0.0600
      9 C9         -0.8300   -0.5276   48.3191 C.3     1  ZINC000906038034   -0.5300
     10 S10        -0.5052   -0.1724   46.5702 S.o2    1  ZINC000906038034    2.4200
     11 O11        -0.6691   -1.3721   45.8265 O.2     1  ZINC000906038034   -0.9100
     12 O12        -1.2457    0.9816   46.1974 O.2     1  ZINC000906038034   -0.9200
     13 C13         1.2575    0.2555   46.5957 C.3     1  ZINC000906038034   -0.6100
     14 C14         1.4696    1.5876   45.8737 C.3     1  ZINC000906038034   -0.4500
     15 S15         1.9793    1.2728   44.1614 S.o     1  ZINC000906038034    1.3300
     16 O16         3.2345    0.6066   44.1559 O.2     1  ZINC000906038034   -0.7600
     17 C17         2.1783    2.9428   43.4815 C.3     1  ZINC000906038034    0.1200
     18 F18         3.1508    3.6318   44.2140 F       1  ZINC000906038034   -0.1900
     19 F19         2.5765    2.8568   42.1431 F       1  ZINC000906038034   -0.1700
     20 F20         0.9610    3.6275   43.5628 F       1  ZINC000906038034   -0.1600
     21 C21        -0.6867    1.8354   49.0887 C.2     1  ZINC000906038034   -0.2300
     22 S22        -1.6837    3.0289   49.9183 S.3     1  ZINC000906038034    0.1600
     23 N23        -5.2563    1.1898   50.8364 N.2     1  ZINC000906038034   -0.2400
     24 H24        -7.5345    0.7539   52.8324 H       1  ZINC000906038034    0.0800
     25 H25        -8.3993    1.9307   51.8148 H       1  ZINC000906038034    0.0900
     26 H26        -7.8327    0.3955   51.1145 H       1  ZINC000906038034    0.0900
     27 H27        -6.6060    3.8374   52.2135 H       1  ZINC000906038034    0.1800
     28 H28        -4.1821    4.2179   51.2921 H       1  ZINC000906038034    0.1600
     29 H29         0.0993   -0.8166   48.8099 H       1  ZINC000906038034    0.1500
     30 H30        -1.5504   -1.3419   48.3968 H       1  ZINC000906038034    0.1600
     31 H31         1.5950    0.3442   47.6284 H       1  ZINC000906038034    0.1500
     32 H32         1.8282   -0.5252   46.0929 H       1  ZINC000906038034    0.1500
     33 H33         0.5389    2.1549   45.8773 H       1  ZINC000906038034    0.1600
     34 H34         2.2450    2.1584   46.3846 H       1  ZINC000906038034    0.1300
     35 H35         0.3170    1.9934   48.7227 H       1  ZINC000906038034    0.1900
@<TRIPOS>BOND
     1     1     2    1
     2     1    24    1
     3     1    25    1
     4     1    26    1
     5     2    23    1
     6     2     3    1
     7     3     4    2
     8     3    27    1
     9     4     5    1
    10     4    28    1
    11     5     6    1
    12     5    23    2
    13     6    22    1
    14     6     7    2
    15     7     8    1
    16     8     9    1
    17     8    21    2
    18     9    10    1
    19     9    29    1
    20     9    30    1
    21    10    11    2
    22    10    12    2
    23    10    13    1
    24    13    14    1
    25    13    31    1
    26    13    32    1
    27    14    15    1
    28    14    33    1
    29    14    34    1
    30    15    16    2
    31    15    17    1
    32    17    18    1
    33    17    19    1
    34    17    20    1
    35    21    22    1
    36    21    35    1
@<TRIPOS>SUBSTRUCTURE
     1 ZINC000906038034        1 TEMP              0 ****  ****    0 ROOT


##########                                Name:    ZINC000549381790
##########                DOCK_Rotatable_Bonds:                   7
##########                         Heavy_Atoms:                  23
##########                    Molecular_Weight:             337.846
##########                DOCK_Rotatable_Bonds:                   7
##########                       Formal_Charge:           0.0300006
##########                     HBond_Acceptors:                   5
##########                        HBond_Donors:                   0
##########                         Heavy_Atoms:                  23
##########                          Grid_Score:          -28.312157
##########                     Grid_vdw_energy:          -27.824602
##########                      Grid_es_energy:           -0.487554
##########           Internal_energy_repulsive:           88.490242

@<TRIPOS>MOLECULE
ZINC000549381790
 47 49 1 0 0
SMALL
USER_CHARGES


@<TRIPOS>ATOM
      1 C1         -4.4552    4.4499   53.3746 C.3     1  ZINC000549381790   -0.1400
      2 C2         -5.3649    3.2322   53.2003 C.3     1  ZINC000549381790    0.1500
      3 H3         -5.2913    2.5923   54.0796 H       1  ZINC000549381790    0.0700
      4 C4         -6.8143    3.6952   53.0221 C.3     1  ZINC000549381790   -0.1300
      5 C5         -7.6976    2.4850   52.7101 C.3     1  ZINC000549381790   -0.1200
      6 C6         -7.2338    1.8361   51.4039 C.3     1  ZINC000549381790   -0.1400
      7 C7         -5.7892    1.3520   51.5638 C.3     1  ZINC000549381790    0.1000
      8 N8         -4.9561    2.4787   52.0072 N.am    1  ZINC000549381790   -0.6100
      9 C9         -3.8416    2.8171   51.3292 C.2     1  ZINC000549381790    0.5200
     10 O10        -3.1626    3.7491   51.7052 O.2     1  ZINC000549381790   -0.5000
     11 C11        -3.4391    2.0376   50.1038 C.3     1  ZINC000549381790    0.0400
     12 O12        -2.0675    2.3009   49.8010 O.3     1  ZINC000549381790   -0.2800
     13 C13        -1.5335    1.6448   48.7363 C.ar    1  ZINC000549381790    0.1100
     14 C14        -1.9556    1.9500   47.4511 C.ar    1  ZINC000549381790   -0.1700
     15 C15        -1.4129    1.2841   46.3689 C.ar    1  ZINC000549381790   -0.1600
     16 C16        -0.4465    0.3100   46.5674 C.ar    1  ZINC000549381790    0.1100
     17 O17         0.0876   -0.3454   45.5020 O.3     1  ZINC000549381790   -0.3000
     18 C18         0.9494    0.4051   44.6441 C.3     1  ZINC000549381790    0.0900
     19 C19         2.1720    0.8757   45.4346 C.3     1  ZINC000549381790   -0.1600
     20 C20         3.5066    0.1842   45.1491 C.3     1  ZINC000549381790   -0.1700
     21 C21         3.2682    1.6160   44.6657 C.3     1  ZINC000549381790   -0.1700
     22 C22        -0.0237    0.0042   47.8538 C.ar    1  ZINC000549381790   -0.0300
     23 Cl23        1.1868   -1.2151   48.1030 Cl      1  ZINC000549381790   -0.0400
     24 C24        -0.5625    0.6745   48.9356 C.ar    1  ZINC000549381790   -0.1000
     25 H25        -4.4527    5.0361   52.4556 H       1  ZINC000549381790    0.0600
     26 H26        -4.8237    5.0641   54.1962 H       1  ZINC000549381790    0.0500
     27 H27        -3.4412    4.1172   53.5961 H       1  ZINC000549381790    0.0800
     28 H28        -7.1598    4.1707   53.9401 H       1  ZINC000549381790    0.0800
     29 H29        -6.8700    4.4080   52.1995 H       1  ZINC000549381790    0.0700
     30 H30        -7.6222    1.7615   53.5219 H       1  ZINC000549381790    0.0700
     31 H31        -8.7334    2.8083   52.6072 H       1  ZINC000549381790    0.0700
     32 H32        -7.8777    0.9883   51.1702 H       1  ZINC000549381790    0.0800
     33 H33        -7.2854    2.5664   50.5965 H       1  ZINC000549381790    0.0700
     34 H34        -5.7506    0.5567   52.3082 H       1  ZINC000549381790    0.0800
     35 H35        -5.4209    0.9790   50.6081 H       1  ZINC000549381790    0.0800
     36 H36        -3.5717    0.9721   50.2913 H       1  ZINC000549381790    0.0900
     37 H37        -4.0615    2.3384   49.2612 H       1  ZINC000549381790    0.0900
     38 H38        -2.7088    2.7083   47.2960 H       1  ZINC000549381790    0.1400
     39 H39        -1.7419    1.5221   45.3681 H       1  ZINC000549381790    0.1400
     40 H40         1.2730   -0.2230   43.8143 H       1  ZINC000549381790    0.0700
     41 H41         0.4122    1.2708   44.2566 H       1  ZINC000549381790    0.0700
     42 H42         1.9766    1.1896   46.4599 H       1  ZINC000549381790    0.1200
     43 H43         4.1896    0.0430   45.9868 H       1  ZINC000549381790    0.1000
     44 H44         3.5136   -0.6060   44.3983 H       1  ZINC000549381790    0.1000
     45 H45         3.1183    1.7680   43.5968 H       1  ZINC000549381790    0.1000
     46 H46         3.7942    2.4168   45.1854 H       1  ZINC000549381790    0.1000
     47 H47        -0.2338    0.4368   49.9365 H       1  ZINC000549381790    0.1500
@<TRIPOS>BOND
     1     1     2    1
     2     1    25    1
     3     1    26    1
     4     1    27    1
     5     2     3    1
     6     2     8    1
     7     2     4    1
     8     4     5    1
     9     4    28    1
    10     4    29    1
    11     5     6    1
    12     5    30    1
    13     5    31    1
    14     6     7    1
    15     6    32    1
    16     6    33    1
    17     7     8    1
    18     7    34    1
    19     7    35    1
    20     8     9   am
    21     9    10    2
    22     9    11    1
    23    11    12    1
    24    11    36    1
    25    11    37    1
    26    12    13    1
    27    13    24   ar
    28    13    14   ar
    29    14    15   ar
    30    14    38    1
    31    15    16   ar
    32    15    39    1
    33    16    17    1
    34    16    22   ar
    35    17    18    1
    36    18    19    1
    37    18    40    1
    38    18    41    1
    39    19    21    1
    40    19    20    1
    41    19    42    1
    42    20    21    1
    43    20    43    1
    44    20    44    1
    45    21    45    1
    46    21    46    1
    47    22    23    1
    48    22    24   ar
    49    24    47    1
@<TRIPOS>SUBSTRUCTURE
     1 ZINC000549381790        1 TEMP              0 ****  ****    0 ROOT


##########                                Name:    ZINC000345028113
##########                DOCK_Rotatable_Bonds:                   5
##########                         Heavy_Atoms:                  21
##########                    Molecular_Weight:             331.838
##########                DOCK_Rotatable_Bonds:                   5
##########                       Formal_Charge:         4.47035e-07
##########                     HBond_Acceptors:                   6
##########                        HBond_Donors:                   0
##########                         Heavy_Atoms:                  21
##########                          Grid_Score:          -28.303150
##########                     Grid_vdw_energy:          -27.723951
##########                      Grid_es_energy:           -0.579199
##########           Internal_energy_repulsive:           14.010828

@<TRIPOS>MOLECULE
ZINC000345028113
 40 41 1 0 0
SMALL
USER_CHARGES


@<TRIPOS>ATOM
      1 C1         -0.6839   -0.1521   45.2153 C.3     1  ZINC000345028113   -0.1700
      2 C2         -0.5539    1.0608   46.1389 C.3     1  ZINC000345028113    0.1400
      3 H3         -1.1286    1.8919   45.7300 H       1  ZINC000345028113    0.1100
      4 C4          0.9205    1.4640   46.2477 C.3     1  ZINC000345028113   -0.0700
      5 H5          1.0113    2.3510   46.8747 H       1  ZINC000345028113    0.0900
      6 C6          1.4748    1.7627   44.8533 C.3     1  ZINC000345028113   -0.1400
      7 S7          1.8491    0.0921   46.9950 S.3     1  ZINC000345028113   -0.2400
      8 C8          0.9321   -0.2024   48.5362 C.3     1  ZINC000345028113   -0.1100
      9 C9         -0.5435   -0.4369   48.1956 C.3     1  ZINC000345028113    0.1000
     10 N10        -1.0663    0.7200   47.4670 N.am    1  ZINC000345028113   -0.6100
     11 C11        -2.0298    1.4795   48.0249 C.2     1  ZINC000345028113    0.5200
     12 O12        -2.4664    2.4403   47.4274 O.2     1  ZINC000345028113   -0.5300
     13 C13        -2.5644    1.1348   49.3910 C.3     1  ZINC000345028113   -0.1400
     14 C14        -3.7667    2.0264   49.7080 C.3     1  ZINC000345028113    0.0700
     15 O15        -4.3822    1.5833   50.9192 O.3     1  ZINC000345028113   -0.3000
     16 C16        -4.6853    2.5350   51.8417 C.ar    1  ZINC000345028113    0.1300
     17 C17        -3.7605    3.5202   52.1519 C.ar    1  ZINC000345028113   -0.1700
     18 C18        -4.0699    4.4873   53.0895 C.ar    1  ZINC000345028113   -0.1100
     19 C19        -5.3025    4.4732   53.7191 C.ar    1  ZINC000345028113    0.0800
     20 F20        -5.6034    5.4197   54.6350 F       1  ZINC000345028113   -0.1300
     21 C21        -6.2279    3.4901   53.4108 C.ar    1  ZINC000345028113   -0.1100
     22 C22        -5.9234    2.5246   52.4697 C.ar    1  ZINC000345028113   -0.0400
     23 Cl23       -7.0833    1.2922   52.0831 Cl      1  ZINC000345028113   -0.0400
     24 H24        -1.7327   -0.4389   45.1377 H       1  ZINC000345028113    0.0600
     25 H25        -0.3025    0.1017   44.2264 H       1  ZINC000345028113    0.0800
     26 H26        -0.1093   -0.9833   45.6241 H       1  ZINC000345028113    0.0800
     27 H27         0.9083    2.5785   44.4042 H       1  ZINC000345028113    0.0800
     28 H28         2.5235    2.0494   44.9329 H       1  ZINC000345028113    0.0700
     29 H29         1.3875    0.8732   44.2294 H       1  ZINC000345028113    0.0700
     30 H30         1.3351   -1.0816   49.0389 H       1  ZINC000345028113    0.1200
     31 H31         1.0230    0.6671   49.1873 H       1  ZINC000345028113    0.0900
     32 H32        -0.6360   -1.3287   47.5758 H       1  ZINC000345028113    0.0900
     33 H33        -1.1115   -0.5736   49.1158 H       1  ZINC000345028113    0.1000
     34 H34        -2.8731    0.0895   49.4073 H       1  ZINC000345028113    0.1100
     35 H35        -1.7861    1.2955   50.1370 H       1  ZINC000345028113    0.1100
     36 H36        -3.4332    3.0575   49.8261 H       1  ZINC000345028113    0.0800
     37 H37        -4.4871    1.9688   48.8921 H       1  ZINC000345028113    0.0800
     38 H38        -2.7984    3.5317   51.6614 H       1  ZINC000345028113    0.1500
     39 H39        -3.3492    5.2545   53.3313 H       1  ZINC000345028113    0.1500
     40 H40        -7.1892    3.4801   53.9030 H       1  ZINC000345028113    0.1500
@<TRIPOS>BOND
     1     1     2    1
     2     1    24    1
     3     1    25    1
     4     1    26    1
     5     2     3    1
     6     2    10    1
     7     2     4    1
     8     4     5    1
     9     4     6    1
    10     4     7    1
    11     6    27    1
    12     6    28    1
    13     6    29    1
    14     7     8    1
    15     8     9    1
    16     8    30    1
    17     8    31    1
    18     9    10    1
    19     9    32    1
    20     9    33    1
    21    10    11   am
    22    11    12    2
    23    11    13    1
    24    13    14    1
    25    13    34    1
    26    13    35    1
    27    14    15    1
    28    14    36    1
    29    14    37    1
    30    15    16    1
    31    16    22   ar
    32    16    17   ar
    33    17    18   ar
    34    17    38    1
    35    18    19   ar
    36    18    39    1
    37    19    20    1
    38    19    21   ar
    39    21    22   ar
    40    21    40    1
    41    22    23    1
@<TRIPOS>SUBSTRUCTURE
     1 ZINC000345028113        1 TEMP              0 ****  ****    0 ROOT


##########                                Name:    ZINC000863208514
##########                DOCK_Rotatable_Bonds:                   6
##########                         Heavy_Atoms:                  19
##########                    Molecular_Weight:             368.657
##########                DOCK_Rotatable_Bonds:                   6
##########                       Formal_Charge:           0.0100005
##########                     HBond_Acceptors:                   7
##########                        HBond_Donors:                   2
##########                         Heavy_Atoms:                  19
##########                          Grid_Score:          -28.296608
##########                     Grid_vdw_energy:          -27.818861
##########                      Grid_es_energy:           -0.477746
##########           Internal_energy_repulsive:           11.085505

@<TRIPOS>MOLECULE
ZINC000863208514
 31 31 1 0 0
SMALL
USER_CHARGES


@<TRIPOS>ATOM
      1 C1         -7.3955    4.3825   49.5019 C.3     1  ZINC000863208514    0.0900
      2 N2         -6.6129    3.3365   50.1650 N.am    1  ZINC000863208514   -0.6100
      3 C3         -7.0785    2.7647   51.4308 C.3     1  ZINC000863208514    0.0700
      4 C4         -5.4644    2.9005   49.6104 C.2     1  ZINC000863208514    0.5100
      5 O5         -5.0782    3.3750   48.5633 O.2     1  ZINC000863208514   -0.5400
      6 C6         -4.6603    1.8233   50.2917 C.3     1  ZINC000863208514    0.1100
      7 N7         -3.3205    1.7673   49.7018 N.am    1  ZINC000863208514   -0.6600
      8 C8         -2.2789    2.3366   50.3399 C.2     1  ZINC000863208514    0.5600
      9 S9         -2.5218    3.1271   51.8390 S.2     1  ZINC000863208514   -0.6000
     10 N10        -1.0460    2.2837   49.7980 N.am    1  ZINC000863208514   -0.6300
     11 C11        -0.8473    1.6371   48.5716 C.ar    1  ZINC000863208514    0.1200
     12 C12        -0.9932    2.3393   47.3839 C.ar    1  ZINC000863208514   -0.0300
     13 C13        -0.7961    1.6988   46.1743 C.ar    1  ZINC000863208514   -0.0200
     14 Cl14       -0.9778    2.5772   44.6881 Cl      1  ZINC000863208514   -0.0300
     15 C15        -0.4534    0.3579   46.1473 C.ar    1  ZINC000863208514   -0.0600
     16 Br16       -0.1847   -0.5143   44.4911 Br      1  ZINC000863208514   -0.0100
     17 C17        -0.3066   -0.3455   47.3299 C.ar    1  ZINC000863208514   -0.1100
     18 C18        -0.4979    0.2911   48.5422 C.ar    1  ZINC000863208514    0.1100
     19 F19        -0.3546   -0.3957   49.6967 F       1  ZINC000863208514   -0.1200
     20 H20        -8.2837    4.6023   50.0942 H       1  ZINC000863208514    0.0800
     21 H21        -6.7902    5.2839   49.4065 H       1  ZINC000863208514    0.0700
     22 H22        -7.6949    4.0395   48.5115 H       1  ZINC000863208514    0.0700
     23 H23        -7.7164    1.9044   51.2280 H       1  ZINC000863208514    0.0700
     24 H24        -6.2205    2.4490   52.0243 H       1  ZINC000863208514    0.0800
     25 H25        -7.6451    3.5152   51.9819 H       1  ZINC000863208514    0.0800
     26 H26        -4.5800    2.0476   51.3553 H       1  ZINC000863208514    0.1200
     27 H27        -5.1559    0.8615   50.1596 H       1  ZINC000863208514    0.1200
     28 H28        -3.1831    1.3205   48.8518 H       1  ZINC000863208514    0.4100
     29 H29        -0.2963    2.6935   50.2573 H       1  ZINC000863208514    0.4200
     30 H30        -1.2608    3.3855   47.4039 H       1  ZINC000863208514    0.1800
     31 H31        -0.0393   -1.3916   47.3060 H       1  ZINC000863208514    0.1600
@<TRIPOS>BOND
     1     1     2    1
     2     1    20    1
     3     1    21    1
     4     1    22    1
     5     2     3    1
     6     2     4   am
     7     3    23    1
     8     3    24    1
     9     3    25    1
    10     4     5    2
    11     4     6    1
    12     6     7    1
    13     6    26    1
    14     6    27    1
    15     7     8   am
    16     7    28    1
    17     8     9    2
    18     8    10   am
    19    10    11    1
    20    10    29    1
    21    11    18   ar
    22    11    12   ar
    23    12    13   ar
    24    12    30    1
    25    13    14    1
    26    13    15   ar
    27    15    16    1
    28    15    17   ar
    29    17    18   ar
    30    17    31    1
    31    18    19    1
@<TRIPOS>SUBSTRUCTURE
     1 ZINC000863208514        1 TEMP              0 ****  ****    0 ROOT


##########                                Name:    ZINC000482139334
##########                DOCK_Rotatable_Bonds:                   4
##########                         Heavy_Atoms:                  26
##########                    Molecular_Weight:             348.376
##########                DOCK_Rotatable_Bonds:                   4
##########                       Formal_Charge:           0.0300002
##########                     HBond_Acceptors:                   5
##########                        HBond_Donors:                   1
##########                         Heavy_Atoms:                  26
##########                          Grid_Score:          -28.281055
##########                     Grid_vdw_energy:          -28.426210
##########                      Grid_es_energy:            0.145156
##########           Internal_energy_repulsive:           23.404305

@<TRIPOS>MOLECULE
ZINC000482139334
 43 47 1 0 0
SMALL
USER_CHARGES


@<TRIPOS>ATOM
      1 O1         -2.5255    3.1529   51.1963 O.2     1  ZINC000482139334   -0.4800
      2 C2         -2.6389    2.8378   50.0307 C.2     1  ZINC000482139334    0.5500
      3 N3         -3.8237    2.3960   49.5643 N.am    1  ZINC000482139334   -0.6100
      4 C4         -4.9110    2.2962   50.4181 C.2     1  ZINC000482139334    0.4300
      5 N5         -4.9092    2.6012   51.6904 N.2     1  ZINC000482139334   -0.4800
      6 C6         -6.1524    2.3739   52.1897 C.2     1  ZINC000482139334    0.0400
      7 C7         -6.5891    2.5880   53.5913 C.ar    1  ZINC000482139334   -0.0500
      8 C8         -5.7247    3.1780   54.5107 C.ar    1  ZINC000482139334   -0.0800
      9 C9         -6.1362    3.3755   55.8135 C.ar    1  ZINC000482139334   -0.1300
     10 C10        -7.4039    2.9885   56.2083 C.ar    1  ZINC000482139334   -0.0800
     11 C11        -8.2678    2.4015   55.3015 C.ar    1  ZINC000482139334   -0.1600
     12 C12        -7.8696    2.2042   53.9927 C.ar    1  ZINC000482139334    0.1300
     13 F13        -8.7136    1.6309   53.1071 F       1  ZINC000482139334   -0.1200
     14 C14        -6.9192    1.9165   51.1718 C.2     1  ZINC000482139334   -0.0600
     15 O15        -6.1379    1.8768   50.0724 O.3     1  ZINC000482139334   -0.1800
     16 C16        -1.4567    2.9462   49.1024 C.3     1  ZINC000482139334   -0.1800
     17 H17        -1.4369    3.8322   48.4677 H       1  ZINC000482139334    0.1400
     18 C18        -0.1147    2.4021   49.5995 C.3     1  ZINC000482139334   -0.1200
     19 C19        -0.8951    1.6533   48.5238 C.3     1  ZINC000482139334   -0.0500
     20 C20        -1.5540    0.2957   48.8197 C.3     1  ZINC000482139334   -0.0700
     21 C21        -0.8196   -0.6448   47.8384 C.3     1  ZINC000482139334   -0.0900
     22 C22        -0.3585    0.2457   46.7038 C.ar    1  ZINC000482139334   -0.0800
     23 C23         0.0648   -0.0769   45.4260 C.ar    1  ZINC000482139334   -0.1100
     24 C24         0.4458    0.9181   44.5468 C.ar    1  ZINC000482139334   -0.1100
     25 C25         0.4047    2.2414   44.9437 C.ar    1  ZINC000482139334   -0.1200
     26 C26        -0.0175    2.5661   46.2180 C.ar    1  ZINC000482139334   -0.1000
     27 C27        -0.4004    1.5710   47.1014 C.ar    1  ZINC000482139334   -0.0700
     28 H28        -3.9155    2.1477   48.6311 H       1  ZINC000482139334    0.4400
     29 H29        -4.7340    3.4804   54.2046 H       1  ZINC000482139334    0.1300
     30 H30        -5.4662    3.8330   56.5265 H       1  ZINC000482139334    0.1400
     31 H31        -7.7205    3.1449   57.2290 H       1  ZINC000482139334    0.1400
     32 H32        -9.2564    2.1006   55.6155 H       1  ZINC000482139334    0.1400
     33 H33        -7.9614    1.6389   51.2283 H       1  ZINC000482139334    0.2200
     34 H34         0.7880    2.9296   49.2912 H       1  ZINC000482139334    0.1200
     35 H35        -0.0869    1.9657   50.5980 H       1  ZINC000482139334    0.1100
     36 H36        -1.3762   -0.0053   49.8521 H       1  ZINC000482139334    0.0800
     37 H37        -2.6216    0.3268   48.6017 H       1  ZINC000482139334    0.0900
     38 H38         0.0372   -1.1074   48.3281 H       1  ZINC000482139334    0.0800
     39 H39        -1.5014   -1.4092   47.4658 H       1  ZINC000482139334    0.0800
     40 H40         0.0976   -1.1107   45.1153 H       1  ZINC000482139334    0.1200
     41 H41         0.7757    0.6623   43.5508 H       1  ZINC000482139334    0.1300
     42 H42         0.7028    3.0208   44.2580 H       1  ZINC000482139334    0.1300
     43 H43        -0.0486    3.6006   46.5270 H       1  ZINC000482139334    0.1200
@<TRIPOS>BOND
     1     1     2    2
     2     2     3   am
     3     2    16    1
     4     3     4    1
     5     3    28    1
     6     4    15    1
     7     4     5    2
     8     5     6    1
     9     6     7    1
    10     6    14    2
    11     7    12   ar
    12     7     8   ar
    13     8     9   ar
    14     8    29    1
    15     9    10   ar
    16     9    30    1
    17    10    11   ar
    18    10    31    1
    19    11    12   ar
    20    11    32    1
    21    12    13    1
    22    14    15    1
    23    14    33    1
    24    16    17    1
    25    16    19    1
    26    16    18    1
    27    18    19    1
    28    18    34    1
    29    18    35    1
    30    19    27    1
    31    19    20    1
    32    20    21    1
    33    20    36    1
    34    20    37    1
    35    21    22    1
    36    21    38    1
    37    21    39    1
    38    22    27   ar
    39    22    23   ar
    40    23    24   ar
    41    23    40    1
    42    24    25   ar
    43    24    41    1
    44    25    26   ar
    45    25    42    1
    46    26    27   ar
    47    26    43    1
@<TRIPOS>SUBSTRUCTURE
     1 ZINC000482139334        1 TEMP              0 ****  ****    0 ROOT


##########                                Name:    ZINC001015955459
##########                DOCK_Rotatable_Bonds:                   6
##########                         Heavy_Atoms:                  24
##########                    Molecular_Weight:             347.844
##########                DOCK_Rotatable_Bonds:                   6
##########                       Formal_Charge:          -0.0200002
##########                     HBond_Acceptors:                   6
##########                        HBond_Donors:                   1
##########                         Heavy_Atoms:                  24
##########                          Grid_Score:          -28.266550
##########                     Grid_vdw_energy:          -28.149466
##########                      Grid_es_energy:           -0.117084
##########           Internal_energy_repulsive:           10.589188

@<TRIPOS>MOLECULE
ZINC001015955459
 46 48 1 0 0
SMALL
USER_CHARGES


@<TRIPOS>ATOM
      1 C1          2.0451    6.3755   43.5441 C.3     1  ZINC001015955459   -0.1500
      2 C2          1.6765    5.4564   42.3778 C.3     1  ZINC001015955459   -0.0300
      3 C3          1.9323    6.1828   41.0556 C.3     1  ZINC001015955459   -0.1500
      4 C4          2.5188    4.2082   42.4363 C.2     1  ZINC001015955459    0.0600
      5 C5          2.2118    3.0537   43.0882 C.2     1  ZINC001015955459   -0.0800
      6 C6          0.9915    2.7881   43.8716 C.2     1  ZINC001015955459    0.6100
      7 O7          0.1368    3.6470   43.9758 O.2     1  ZINC001015955459   -0.5300
      8 N8          0.8229    1.5935   44.4723 N.am    1  ZINC001015955459   -0.7100
      9 C9         -0.3905    1.3289   45.2493 C.3     1  ZINC001015955459    0.1400
     10 H10        -1.2552    1.7839   44.7662 H       1  ZINC001015955459    0.1000
     11 C11        -0.6038   -0.1905   45.4091 C.3     1  ZINC001015955459   -0.1300
     12 C12        -0.5601   -0.4437   46.9313 C.3     1  ZINC001015955459    0.0200
     13 N13        -0.9259    0.8617   47.5386 N.3     1  ZINC001015955459   -0.4900
     14 C14        -0.4627    0.9432   48.9304 C.3     1  ZINC001015955459    0.0800
     15 C15        -1.4548    1.7331   49.7445 C.ar    1  ZINC001015955459   -0.1100
     16 C16        -1.0502    2.8770   50.4067 C.ar    1  ZINC001015955459   -0.1100
     17 C17        -1.9610    3.6050   51.1498 C.ar    1  ZINC001015955459   -0.1000
     18 C18        -3.2739    3.1834   51.2397 C.ar    1  ZINC001015955459   -0.1100
     19 C19        -3.6784    2.0355   50.5813 C.ar    1  ZINC001015955459   -0.0300
     20 Cl20       -5.3275    1.5049   50.6942 Cl      1  ZINC001015955459   -0.0700
     21 C21        -2.7679    1.3105   49.8336 C.ar    1  ZINC001015955459   -0.1000
     22 C22        -0.2344    1.8679   46.6876 C.3     1  ZINC001015955459    0.0100
     23 N23         3.2457    2.1927   42.8858 N.2     1  ZINC001015955459   -0.4600
     24 C24         4.1335    2.7827   42.1427 C.2     1  ZINC001015955459    0.1800
     25 O25         3.7147    4.0232   41.8547 O.3     1  ZINC001015955459   -0.1900
     26 H26         3.0990    6.6448   43.4754 H       1  ZINC001015955459    0.0600
     27 H27         1.4358    7.2784   43.5019 H       1  ZINC001015955459    0.0700
     28 H28         1.8628    5.8581   44.4860 H       1  ZINC001015955459    0.0600
     29 H29         0.6225    5.1871   42.4464 H       1  ZINC001015955459    0.1300
     30 H30         1.6696    5.5280   40.2247 H       1  ZINC001015955459    0.0600
     31 H31         1.3229    7.0856   41.0133 H       1  ZINC001015955459    0.0700
     32 H32         2.9861    6.4521   40.9870 H       1  ZINC001015955459    0.0600
     33 H33         1.5052    0.9088   44.3901 H       1  ZINC001015955459    0.4100
     34 H34        -1.5732   -0.4813   45.0045 H       1  ZINC001015955459    0.0800
     35 H35         0.1944   -0.7394   44.9094 H       1  ZINC001015955459    0.0700
     36 H36        -1.2846   -1.2090   47.2102 H       1  ZINC001015955459    0.0900
     37 H37         0.4430   -0.7386   47.2391 H       1  ZINC001015955459    0.0500
     38 H38        -0.3726   -0.0618   49.3427 H       1  ZINC001015955459    0.0900
     39 H39         0.5084    1.4373   48.9618 H       1  ZINC001015955459    0.0900
     40 H40        -0.0232    3.2043   50.3404 H       1  ZINC001015955459    0.1300
     41 H41        -1.6452    4.5008   51.6636 H       1  ZINC001015955459    0.1300
     42 H42        -3.9842    3.7496   51.8239 H       1  ZINC001015955459    0.1300
     43 H43        -3.0829    0.4142   49.3199 H       1  ZINC001015955459    0.1300
     44 H44         0.8199    1.9341   46.9564 H       1  ZINC001015955459    0.0700
     45 H45        -0.7138    2.8422   46.7824 H       1  ZINC001015955459    0.0900
     46 H46         5.0640    2.3448   41.8132 H       1  ZINC001015955459    0.2600
@<TRIPOS>BOND
     1     1     2    1
     2     1    26    1
     3     1    27    1
     4     1    28    1
     5     2     3    1
     6     2     4    1
     7     2    29    1
     8     3    30    1
     9     3    31    1
    10     3    32    1
    11     4    25    1
    12     4     5    2
    13     5     6    1
    14     5    23    1
    15     6     7    2
    16     6     8   am
    17     8     9    1
    18     8    33    1
    19     9    10    1
    20     9    22    1
    21     9    11    1
    22    11    12    1
    23    11    34    1
    24    11    35    1
    25    12    13    1
    26    12    36    1
    27    12    37    1
    28    13    14    1
    29    13    22    1
    30    14    15    1
    31    14    38    1
    32    14    39    1
    33    15    21   ar
    34    15    16   ar
    35    16    17   ar
    36    16    40    1
    37    17    18   ar
    38    17    41    1
    39    18    19   ar
    40    18    42    1
    41    19    20    1
    42    19    21   ar
    43    21    43    1
    44    22    44    1
    45    22    45    1
    46    23    24    2
    47    24    25    1
    48    24    46    1
@<TRIPOS>SUBSTRUCTURE
     1 ZINC001015955459        1 TEMP              0 ****  ****    0 ROOT


##########                                Name:    ZINC000942890482
##########                DOCK_Rotatable_Bonds:                   8
##########                         Heavy_Atoms:                  25
##########                    Molecular_Weight:             346.445
##########                DOCK_Rotatable_Bonds:                   8
##########                       Formal_Charge:          -0.0100004
##########                     HBond_Acceptors:                   5
##########                        HBond_Donors:                   0
##########                         Heavy_Atoms:                  25
##########                          Grid_Score:          -28.260696
##########                     Grid_vdw_energy:          -28.147182
##########                      Grid_es_energy:           -0.113514
##########           Internal_energy_repulsive:           28.047817

@<TRIPOS>MOLECULE
ZINC000942890482
 52 54 1 0 0
SMALL
USER_CHARGES


@<TRIPOS>ATOM
      1 C1         -0.5214   -0.2211   48.8303 C.3     1  ZINC000942890482   -0.1700
      2 C2         -1.0780    0.7315   47.7703 C.3     1  ZINC000942890482    0.1000
      3 N3         -0.6612    2.1018   48.0781 N.am    1  ZINC000942890482   -0.6000
      4 C4          0.4409    2.6174   47.4982 C.2     1  ZINC000942890482    0.5700
      5 O5          0.7866    3.7545   47.7537 O.2     1  ZINC000942890482   -0.5100
      6 C6          1.2284    1.8007   46.5522 C.ar    1  ZINC000942890482   -0.1400
      7 C7          2.2288    0.9495   47.0259 C.ar    1  ZINC000942890482   -0.0600
      8 C8          2.9605    0.1891   46.1387 C.ar    1  ZINC000942890482   -0.1600
      9 C9          2.7046    0.2686   44.7785 C.ar    1  ZINC000942890482    0.1300
     10 F10         3.4245   -0.4786   43.9133 F       1  ZINC000942890482   -0.1300
     11 C11         1.7119    1.1121   44.3028 C.ar    1  ZINC000942890482   -0.1600
     12 C12         0.9712    1.8730   45.1813 C.ar    1  ZINC000942890482   -0.0100
     13 C13        -0.1073    2.7890   44.6630 C.3     1  ZINC000942890482   -0.1200
     14 C14        -1.4423    2.9118   49.0163 C.3     1  ZINC000942890482    0.1400
     15 H15        -1.6795    3.8846   48.5857 H       1  ZINC000942890482    0.1100
     16 C16        -0.6981    3.0687   50.3687 C.3     1  ZINC000942890482   -0.1500
     17 C17        -1.8487    3.2957   51.3719 C.3     1  ZINC000942890482    0.1100
     18 N18        -3.0705    2.7457   50.7667 N.am    1  ZINC000942890482   -0.6200
     19 C19        -4.2992    2.7665   51.3200 C.2     1  ZINC000942890482    0.5300
     20 O20        -4.4650    3.2718   52.4100 O.2     1  ZINC000942890482   -0.5400
     21 C21        -5.4672    2.1616   50.5844 C.3     1  ZINC000942890482   -0.1300
     22 C22        -6.1336    3.2319   49.7178 C.3     1  ZINC000942890482   -0.0700
     23 C23        -6.6966    4.3364   50.6144 C.3     1  ZINC000942890482   -0.1600
     24 C24        -8.1587    4.7373   50.4080 C.3     1  ZINC000942890482   -0.1800
     25 C25        -7.7522    3.9380   51.6478 C.3     1  ZINC000942890482   -0.1800
     26 C26        -2.7297    2.1690   49.4529 C.3     1  ZINC000942890482    0.0900
     27 H27         0.5671   -0.1645   48.8341 H       1  ZINC000942890482    0.0600
     28 H28        -0.9034    0.0632   49.8108 H       1  ZINC000942890482    0.0600
     29 H29        -0.8316   -1.2406   48.6013 H       1  ZINC000942890482    0.0700
     30 H30        -0.6960    0.4472   46.7899 H       1  ZINC000942890482    0.0900
     31 H31        -2.1665    0.6750   47.7665 H       1  ZINC000942890482    0.0900
     32 H32         2.4292    0.8871   48.0853 H       1  ZINC000942890482    0.1400
     33 H33         3.7347   -0.4693   46.5039 H       1  ZINC000942890482    0.1400
     34 H34         1.5165    1.1702   43.2421 H       1  ZINC000942890482    0.1400
     35 H35        -1.0362    2.2298   44.5512 H       1  ZINC000942890482    0.0900
     36 H36        -0.2582    3.6074   45.3669 H       1  ZINC000942890482    0.0700
     37 H37         0.1926    3.1924   43.6957 H       1  ZINC000942890482    0.0700
     38 H38        -0.1468    2.1607   50.6131 H       1  ZINC000942890482    0.1000
     39 H39        -0.0319    3.9310   50.3445 H       1  ZINC000942890482    0.0900
     40 H40        -1.6329    2.7785   52.3067 H       1  ZINC000942890482    0.0700
     41 H41        -1.9744    4.3626   51.5566 H       1  ZINC000942890482    0.0700
     42 H42        -5.1151    1.3480   49.9503 H       1  ZINC000942890482    0.0900
     43 H43        -6.1890    1.7752   51.3039 H       1  ZINC000942890482    0.0900
     44 H44        -5.3974    3.6575   49.0358 H       1  ZINC000942890482    0.0700
     45 H45        -6.9435    2.7820   49.1435 H       1  ZINC000942890482    0.0700
     46 H46        -5.9932    5.1220   50.8905 H       1  ZINC000942890482    0.1000
     47 H47        -8.4174    5.7867   50.5484 H       1  ZINC000942890482    0.0900
     48 H48        -8.7195    4.2140   49.6336 H       1  ZINC000942890482    0.0900
     49 H49        -8.0456    2.8890   51.6889 H       1  ZINC000942890482    0.0900
     50 H50        -7.7435    4.4617   52.6037 H       1  ZINC000942890482    0.0900
     51 H51        -3.5335    2.3494   48.7393 H       1  ZINC000942890482    0.0800
     52 H52        -2.5369    1.1002   49.5462 H       1  ZINC000942890482    0.0900
@<TRIPOS>BOND
     1     1     2    1
     2     1    27    1
     3     1    28    1
     4     1    29    1
     5     2     3    1
     6     2    30    1
     7     2    31    1
     8     3     4   am
     9     3    14    1
    10     4     5    2
    11     4     6    1
    12     6    12   ar
    13     6     7   ar
    14     7     8   ar
    15     7    32    1
    16     8     9   ar
    17     8    33    1
    18     9    10    1
    19     9    11   ar
    20    11    12   ar
    21    11    34    1
    22    12    13    1
    23    13    35    1
    24    13    36    1
    25    13    37    1
    26    14    15    1
    27    14    26    1
    28    14    16    1
    29    16    17    1
    30    16    38    1
    31    16    39    1
    32    17    18    1
    33    17    40    1
    34    17    41    1
    35    18    19   am
    36    18    26    1
    37    19    20    2
    38    19    21    1
    39    21    22    1
    40    21    42    1
    41    21    43    1
    42    22    23    1
    43    22    44    1
    44    22    45    1
    45    23    25    1
    46    23    24    1
    47    23    46    1
    48    24    25    1
    49    24    47    1
    50    24    48    1
    51    25    49    1
    52    25    50    1
    53    26    51    1
    54    26    52    1
@<TRIPOS>SUBSTRUCTURE
     1 ZINC000942890482        1 TEMP              0 ****  ****    0 ROOT


##########                                Name:    ZINC000271662144
##########                DOCK_Rotatable_Bonds:                   8
##########                         Heavy_Atoms:                  26
##########                    Molecular_Weight:             390.402
##########                DOCK_Rotatable_Bonds:                   8
##########                       Formal_Charge:          0.00999944
##########                     HBond_Acceptors:                   9
##########                        HBond_Donors:                   3
##########                         Heavy_Atoms:                  26
##########                          Grid_Score:          -28.247953
##########                     Grid_vdw_energy:          -27.132343
##########                      Grid_es_energy:           -1.115611
##########           Internal_energy_repulsive:           24.918768

@<TRIPOS>MOLECULE
ZINC000271662144
 44 45 1 0 0
SMALL
USER_CHARGES


@<TRIPOS>ATOM
      1 C1          0.3344    4.1970   48.4311 C.3     1  ZINC000271662144   -0.1400
      2 C2          0.2697    3.0016   49.3839 C.3     1  ZINC000271662144    0.1200
      3 H3          1.2294    2.8861   49.8875 H       1  ZINC000271662144    0.0600
      4 N4         -0.0330    1.7832   48.6211 N.3     1  ZINC000271662144   -0.6700
      5 C5          1.1630    0.9427   48.4755 C.3     1  ZINC000271662144    0.1300
      6 H6          1.9950    1.3985   49.0124 H       1  ZINC000271662144    0.1100
      7 C7          0.8835   -0.4464   49.0525 C.3     1  ZINC000271662144   -0.2000
      8 C8         -0.5858   -0.8072   48.8244 C.3     1  ZINC000271662144    0.4600
      9 F9         -0.7669   -2.1787   49.0329 F       1  ZINC000271662144   -0.1800
     10 F10        -1.3866   -0.0897   49.7194 F       1  ZINC000271662144   -0.1800
     11 F11        -0.9472   -0.4833   47.5122 F       1  ZINC000271662144   -0.1700
     12 C12         1.5150    0.8186   47.0155 C.ar    1  ZINC000271662144   -0.0900
     13 C13         0.6685    1.3388   46.0542 C.ar    1  ZINC000271662144   -0.0600
     14 C14         0.9902    1.2257   44.7150 C.ar    1  ZINC000271662144   -0.1600
     15 C15         2.1612    0.5913   44.3362 C.ar    1  ZINC000271662144    0.1000
     16 F16         2.4769    0.4804   43.0272 F       1  ZINC000271662144   -0.1400
     17 C17         3.0085    0.0711   45.2997 C.ar    1  ZINC000271662144   -0.1500
     18 C18         2.6870    0.1897   46.6386 C.ar    1  ZINC000271662144   -0.0700
     19 C19        -0.8107    3.2340   50.4086 C.ar    1  ZINC000271662144   -0.1100
     20 C20        -0.4938    3.7926   51.6324 C.ar    1  ZINC000271662144   -0.0400
     21 C21        -1.4849    4.0057   52.5724 C.ar    1  ZINC000271662144   -0.1400
     22 C22        -2.7927    3.6606   52.2882 C.ar    1  ZINC000271662144   -0.0200
     23 C23        -3.1100    3.1026   51.0637 C.ar    1  ZINC000271662144   -0.6800
     24 S24        -4.7771    2.6621   50.7016 S.o2    1  ZINC000271662144    2.7000
     25 N25        -5.3505    1.8060   51.9980 N.am    1  ZINC000271662144   -1.2500
     26 O26        -5.5141    3.8764   50.6648 O.2     1  ZINC000271662144   -0.9600
     27 O27        -4.7239    1.7520   49.6116 O.2     1  ZINC000271662144   -0.9600
     28 C28        -2.1198    2.8935   50.1223 C.ar    1  ZINC000271662144   -0.0100
     29 H29         1.1158    4.0289   47.6899 H       1  ZINC000271662144    0.0600
     30 H30        -0.6254    4.3126   47.9274 H       1  ZINC000271662144    0.0700
     31 H31         0.5589    5.1011   48.9971 H       1  ZINC000271662144    0.0600
     32 H32        -0.7876    1.2674   49.0482 H       1  ZINC000271662144    0.3500
     33 H33         1.5189   -1.1805   48.5570 H       1  ZINC000271662144    0.1100
     34 H34         1.0954   -0.4452   50.1217 H       1  ZINC000271662144    0.1200
     35 H35        -0.2448    1.8336   46.3500 H       1  ZINC000271662144    0.1300
     36 H36         0.3284    1.6315   43.9643 H       1  ZINC000271662144    0.1400
     37 H37         3.9219   -0.4243   45.0053 H       1  ZINC000271662144    0.1400
     38 H38         3.3480   -0.2158   47.3903 H       1  ZINC000271662144    0.1300
     39 H39         0.5282    4.0623   51.8545 H       1  ZINC000271662144    0.1400
     40 H40        -1.2372    4.4417   53.5291 H       1  ZINC000271662144    0.1400
     41 H41        -3.5669    3.8264   53.0229 H       1  ZINC000271662144    0.1400
     42 H42        -6.2604    1.4700   51.9931 H       1  ZINC000271662144    0.4200
     43 H43        -4.7765    1.6406   52.7622 H       1  ZINC000271662144    0.4200
     44 H44        -2.3674    2.4576   49.1657 H       1  ZINC000271662144    0.1400
@<TRIPOS>BOND
     1     1     2    1
     2     1    29    1
     3     1    30    1
     4     1    31    1
     5     2     3    1
     6     2     4    1
     7     2    19    1
     8     4     5    1
     9     4    32    1
    10     5     6    1
    11     5     7    1
    12     5    12    1
    13     7     8    1
    14     7    33    1
    15     7    34    1
    16     8     9    1
    17     8    10    1
    18     8    11    1
    19    12    18   ar
    20    12    13   ar
    21    13    14   ar
    22    13    35    1
    23    14    15   ar
    24    14    36    1
    25    15    16    1
    26    15    17   ar
    27    17    18   ar
    28    17    37    1
    29    18    38    1
    30    19    28   ar
    31    19    20   ar
    32    20    21   ar
    33    20    39    1
    34    21    22   ar
    35    21    40    1
    36    22    23   ar
    37    22    41    1
    38    23    24    1
    39    23    28   ar
    40    24    25   am
    41    24    26    2
    42    24    27    2
    43    25    42    1
    44    25    43    1
    45    28    44    1
@<TRIPOS>SUBSTRUCTURE
     1 ZINC000271662144        1 TEMP              0 ****  ****    0 ROOT


##########                                Name:    ZINC000811540126
##########                DOCK_Rotatable_Bonds:                   7
##########                         Heavy_Atoms:                  21
##########                    Molecular_Weight:             397.212
##########                DOCK_Rotatable_Bonds:                   7
##########                       Formal_Charge:           0.0100001
##########                     HBond_Acceptors:                   4
##########                        HBond_Donors:                   3
##########                         Heavy_Atoms:                  21
##########                          Grid_Score:          -28.191776
##########                     Grid_vdw_energy:          -27.119522
##########                      Grid_es_energy:           -1.072255
##########           Internal_energy_repulsive:            8.952736

@<TRIPOS>MOLECULE
ZINC000811540126
 37 38 1 0 0
SMALL
USER_CHARGES


@<TRIPOS>ATOM
      1 C1         -0.5627   -1.3293   48.3212 C.3     1  ZINC000811540126   -0.1600
      2 C2         -0.7065    0.1870   48.1757 C.3     1  ZINC000811540126    0.1200
      3 H3         -1.2434    0.4143   47.2547 H       1  ZINC000811540126    0.1000
      4 N4         -1.4518    0.7189   49.3194 N.am    1  ZINC000811540126   -0.7200
      5 C5         -2.3771    1.6808   49.1322 C.2     1  ZINC000811540126    0.5700
      6 O6         -2.5923    2.1081   48.0144 O.2     1  ZINC000811540126   -0.5100
      7 C7         -3.1289    2.2151   50.2837 C.ar    1  ZINC000811540126   -0.1600
      8 C8         -4.3957    1.7126   50.5897 C.ar    1  ZINC000811540126   -0.0400
      9 C9         -5.0930    2.2164   51.6672 C.ar    1  ZINC000811540126   -0.1200
     10 I10        -6.9930    1.4618   52.1249 I       1  ZINC000811540126   -0.0300
     11 C11        -4.5425    3.2193   52.4488 C.ar    1  ZINC000811540126   -0.0400
     12 C12        -3.2911    3.7250   52.1567 C.ar    1  ZINC000811540126   -0.1500
     13 C13        -2.5735    3.2260   51.0803 C.ar    1  ZINC000811540126    0.1900
     14 O14        -1.3439    3.7216   50.7927 O.3     1  ZINC000811540126   -0.4700
     15 C15         0.6816    0.8287   48.1286 C.3     1  ZINC000811540126    0.1400
     16 H16         1.3674    0.1723   47.5930 H       1  ZINC000811540126    0.1300
     17 O17         1.1583    1.0312   49.4604 O.3     1  ZINC000811540126   -0.5400
     18 C18         0.5980    2.1551   47.4180 C.ar    1  ZINC000811540126   -0.1200
     19 C19         0.7069    3.3316   48.1354 C.ar    1  ZINC000811540126   -0.1100
     20 C20         0.6302    4.5483   47.4836 C.ar    1  ZINC000811540126   -0.1100
     21 C21         0.4450    4.5883   46.1143 C.ar    1  ZINC000811540126   -0.1200
     22 C22         0.3369    3.4117   45.3968 C.ar    1  ZINC000811540126   -0.1100
     23 C23         0.4180    2.1950   46.0480 C.ar    1  ZINC000811540126   -0.1100
     24 H24        -1.5516   -1.7865   48.3549 H       1  ZINC000811540126    0.0600
     25 H25        -0.0081   -1.7249   47.4704 H       1  ZINC000811540126    0.0700
     26 H26        -0.0258   -1.5566   49.2422 H       1  ZINC000811540126    0.0700
     27 H27        -1.2793    0.3787   50.2112 H       1  ZINC000811540126    0.3900
     28 H28        -4.8285    0.9310   49.9830 H       1  ZINC000811540126    0.1300
     29 H29        -5.0954    3.6080   53.2912 H       1  ZINC000811540126    0.1400
     30 H30        -2.8688    4.5069   52.7705 H       1  ZINC000811540126    0.1500
     31 H31        -0.9162    3.2980   50.0358 H       1  ZINC000811540126    0.4000
     32 H32         1.1207    0.2407   50.0160 H       1  ZINC000811540126    0.3700
     33 H33         0.8515    3.3003   49.2052 H       1  ZINC000811540126    0.1100
     34 H34         0.7145    5.4675   48.0443 H       1  ZINC000811540126    0.1200
     35 H35         0.3843    5.5388   45.6051 H       1  ZINC000811540126    0.1200
     36 H36         0.1919    3.4430   44.3269 H       1  ZINC000811540126    0.1300
     37 H37         0.3336    1.2758   45.4874 H       1  ZINC000811540126    0.1200
@<TRIPOS>BOND
     1     1     2    1
     2     1    24    1
     3     1    25    1
     4     1    26    1
     5     2     3    1
     6     2     4    1
     7     2    15    1
     8     4     5   am
     9     4    27    1
    10     5     6    2
    11     5     7    1
    12     7    13   ar
    13     7     8   ar
    14     8     9   ar
    15     8    28    1
    16     9    10    1
    17     9    11   ar
    18    11    12   ar
    19    11    29    1
    20    12    13   ar
    21    12    30    1
    22    13    14    1
    23    14    31    1
    24    15    16    1
    25    15    17    1
    26    15    18    1
    27    17    32    1
    28    18    23   ar
    29    18    19   ar
    30    19    20   ar
    31    19    33    1
    32    20    21   ar
    33    20    34    1
    34    21    22   ar
    35    21    35    1
    36    22    23   ar
    37    22    36    1
    38    23    37    1
@<TRIPOS>SUBSTRUCTURE
     1 ZINC000811540126        1 TEMP              0 ****  ****    0 ROOT


##########                                Name:    ZINC000330515179
##########                DOCK_Rotatable_Bonds:                   4
##########                         Heavy_Atoms:                  21
##########                    Molecular_Weight:             378.287
##########                DOCK_Rotatable_Bonds:                   4
##########                       Formal_Charge:           0.0200002
##########                     HBond_Acceptors:                   6
##########                        HBond_Donors:                   0
##########                         Heavy_Atoms:                  21
##########                          Grid_Score:          -28.190346
##########                     Grid_vdw_energy:          -28.671839
##########                      Grid_es_energy:            0.481493
##########           Internal_energy_repulsive:            7.204819

@<TRIPOS>MOLECULE
ZINC000330515179
 41 42 1 0 0
SMALL
USER_CHARGES


@<TRIPOS>ATOM
      1 C1         -6.0565    4.2088   48.7869 C.3     1  ZINC000330515179    0.0300
      2 O2         -4.9442    3.4748   48.2711 O.3     1  ZINC000330515179   -0.3800
      3 C3         -4.4175    2.5041   49.1780 C.3     1  ZINC000330515179    0.0700
      4 C4         -2.9432    2.2522   48.8557 C.3     1  ZINC000330515179    0.0800
      5 H5         -2.8284    2.0824   47.7851 H       1  ZINC000330515179    0.0800
      6 C6         -2.4544    1.0194   49.6247 C.3     1  ZINC000330515179    0.0900
      7 N7         -0.9978    0.9090   49.4470 N.am    1  ZINC000330515179   -1.0000
      8 S8         -0.3032   -0.5153   48.9661 S.o2    1  ZINC000330515179    2.6900
      9 O9          0.7009   -0.8160   49.9256 O.2     1  ZINC000330515179   -0.9400
     10 O10        -1.3723   -1.3989   48.6569 O.2     1  ZINC000330515179   -0.9500
     11 C11         0.5363   -0.2002   47.4494 C.ar    1  ZINC000330515179   -0.6700
     12 C12         1.8916    0.0720   47.4534 C.ar    1  ZINC000330515179   -0.0100
     13 C13         2.5507    0.3189   46.2638 C.ar    1  ZINC000330515179   -0.1100
     14 C14         1.8539    0.2935   45.0692 C.ar    1  ZINC000330515179   -0.0400
     15 Br15        2.7551    0.6305   43.4413 Br      1  ZINC000330515179   -0.0300
     16 C16         0.4978    0.0210   45.0656 C.ar    1  ZINC000330515179   -0.1100
     17 C17        -0.1594   -0.2309   46.2552 C.ar    1  ZINC000330515179   -0.0100
     18 C18        -0.1767    2.1015   49.7099 C.3     1  ZINC000330515179    0.1000
     19 C19        -0.7764    3.2815   48.9367 C.3     1  ZINC000330515179    0.1000
     20 C20        -0.0627    4.5730   49.3408 C.3     1  ZINC000330515179   -0.1400
     21 C21        -0.6020    3.0497   47.4344 C.3     1  ZINC000330515179   -0.1800
     22 O22        -2.1683    3.3887   49.2449 O.3     1  ZINC000330515179   -0.3500
     23 H23        -6.3978    4.9245   48.0390 H       1  ZINC000330515179    0.0900
     24 H24        -6.8665    3.5200   49.0269 H       1  ZINC000330515179    0.0400
     25 H25        -5.7537    4.7417   49.6882 H       1  ZINC000330515179    0.0400
     26 H26        -4.5080    2.8742   50.1992 H       1  ZINC000330515179    0.0600
     27 H27        -4.9755    1.5731   49.0781 H       1  ZINC000330515179    0.0700
     28 H28        -2.6877    1.1309   50.6835 H       1  ZINC000330515179    0.0900
     29 H29        -2.9407    0.1258   49.2333 H       1  ZINC000330515179    0.1000
     30 H30         2.4355    0.0923   48.3863 H       1  ZINC000330515179    0.1500
     31 H31         3.6095    0.5320   46.2671 H       1  ZINC000330515179    0.1500
     32 H32        -0.0467    0.0010   44.1331 H       1  ZINC000330515179    0.1500
     33 H33        -1.2182   -0.4436   46.2525 H       1  ZINC000330515179    0.1500
     34 H34        -0.1807    2.3219   50.7773 H       1  ZINC000330515179    0.0900
     35 H35         0.8454    1.9245   49.3748 H       1  ZINC000330515179    0.1000
     36 H36         0.9991    4.4892   49.1089 H       1  ZINC000330515179    0.0800
     37 H37        -0.4896    5.4116   48.7907 H       1  ZINC000330515179    0.0700
     38 H38        -0.1889    4.7384   50.4108 H       1  ZINC000330515179    0.0700
     39 H39        -1.1123    2.1305   47.1469 H       1  ZINC000330515179    0.0600
     40 H40        -1.0287    3.8891   46.8854 H       1  ZINC000330515179    0.0700
     41 H41         0.4593    2.9646   47.2008 H       1  ZINC000330515179    0.0700
@<TRIPOS>BOND
     1     1     2    1
     2     1    23    1
     3     1    24    1
     4     1    25    1
     5     2     3    1
     6     3     4    1
     7     3    26    1
     8     3    27    1
     9     4     5    1
    10     4    22    1
    11     4     6    1
    12     6     7    1
    13     6    28    1
    14     6    29    1
    15     7     8   am
    16     7    18    1
    17     8     9    2
    18     8    10    2
    19     8    11    1
    20    11    17   ar
    21    11    12   ar
    22    12    13   ar
    23    12    30    1
    24    13    14   ar
    25    13    31    1
    26    14    15    1
    27    14    16   ar
    28    16    17   ar
    29    16    32    1
    30    17    33    1
    31    18    19    1
    32    18    34    1
    33    18    35    1
    34    19    20    1
    35    19    21    1
    36    19    22    1
    37    20    36    1
    38    20    37    1
    39    20    38    1
    40    21    39    1
    41    21    40    1
    42    21    41    1
@<TRIPOS>SUBSTRUCTURE
     1 ZINC000330515179        1 TEMP              0 ****  ****    0 ROOT


##########                                Name:    ZINC000822449555
##########                DOCK_Rotatable_Bonds:                   5
##########                         Heavy_Atoms:                  27
##########                    Molecular_Weight:             366.383
##########                DOCK_Rotatable_Bonds:                   5
##########                       Formal_Charge:          -0.0100009
##########                     HBond_Acceptors:                  10
##########                        HBond_Donors:                   2
##########                         Heavy_Atoms:                  27
##########                          Grid_Score:          -28.168892
##########                     Grid_vdw_energy:          -22.432911
##########                      Grid_es_energy:           -5.735981
##########           Internal_energy_repulsive:            7.288966

@<TRIPOS>MOLECULE
ZINC000822449555
 45 48 1 0 0
SMALL
USER_CHARGES


@<TRIPOS>ATOM
      1 C1         -9.5727    0.2568   58.2587 C.3     1  ZINC000822449555   -0.1100
      2 C2         -9.1435    1.3177   59.2394 C.ar    1  ZINC000822449555    0.1400
      3 N3         -9.1933    1.0678   60.5337 N.ar    1  ZINC000822449555   -0.5000
      4 C4         -8.8264    1.9695   61.4309 C.ar    1  ZINC000822449555    0.3000
      5 N5         -8.8964    1.6598   62.7864 N.3     1  ZINC000822449555   -0.4700
      6 C6         -8.5076    0.2628   63.0284 C.3     1  ZINC000822449555    0.0200
      7 C7         -8.5410   -0.0173   64.5331 C.3     1  ZINC000822449555    0.0600
      8 O8         -9.8460    0.2769   65.0388 O.3     1  ZINC000822449555   -0.3800
      9 C9        -10.2567    1.6294   64.8208 C.3     1  ZINC000822449555    0.0600
     10 C10       -10.2406    1.9261   63.3190 C.3     1  ZINC000822449555    0.0300
     11 C11        -8.3715    3.2225   61.0345 C.ar    1  ZINC000822449555   -0.1700
     12 C12        -8.3058    3.5202   59.6856 C.ar    1  ZINC000822449555   -0.0500
     13 C13        -8.6956    2.5436   58.7704 C.ar    1  ZINC000822449555    0.0600
     14 N14        -8.6457    2.8012   57.3941 N.am    1  ZINC000822449555   -0.6600
     15 C15        -7.4580    2.9963   56.7877 C.2     1  ZINC000822449555    0.5700
     16 O16        -6.4297    2.9490   57.4350 O.2     1  ZINC000822449555   -0.5100
     17 C17        -7.4054    3.2678   55.3369 C.ar    1  ZINC000822449555   -0.1800
     18 C18        -8.4460    3.9631   54.7060 C.ar    1  ZINC000822449555   -0.0100
     19 C19        -8.3525    4.1934   53.3475 C.ar    1  ZINC000822449555   -0.1300
     20 C20        -7.2352    3.7304   52.6540 C.ar    1  ZINC000822449555    0.2300
     21 C21        -7.1270    3.9735   51.1947 C.2     1  ZINC000822449555    0.2100
     22 N22        -8.0702    4.4445   50.4025 N.2     1  ZINC000822449555   -0.2500
     23 N23        -7.5866    4.5103   49.2098 N.pl3   1  ZINC000822449555   -0.2200
     24 N24        -6.3677    4.0963   49.2208 N.2     1  ZINC000822449555   -0.0400
     25 N25        -6.0491    3.7626   50.4253 N.2     1  ZINC000822449555   -0.2500
     26 N26        -6.2666    3.0752   53.2825 N.ar    1  ZINC000822449555   -0.4500
     27 C27        -6.3152    2.8405   54.5754 C.ar    1  ZINC000822449555    0.1400
     28 H28        -8.7148   -0.3613   57.9937 H       1  ZINC000822449555    0.0800
     29 H29       -10.3433   -0.3666   58.7121 H       1  ZINC000822449555    0.0800
     30 H30        -9.9701    0.7308   57.3613 H       1  ZINC000822449555    0.0700
     31 H31        -9.2046   -0.4025   62.5188 H       1  ZINC000822449555    0.0600
     32 H32        -7.4996    0.0947   62.6492 H       1  ZINC000822449555    0.1000
     33 H33        -8.3089   -1.0669   64.7132 H       1  ZINC000822449555    0.1100
     34 H34        -7.8056    0.6104   65.0365 H       1  ZINC000822449555    0.0600
     35 H35       -11.2653    1.7706   65.2090 H       1  ZINC000822449555    0.1000
     36 H36        -9.5711    2.3048   65.3326 H       1  ZINC000822449555    0.0600
     37 H37       -10.4977    2.9721   63.1518 H       1  ZINC000822449555    0.1000
     38 H38       -10.9653    1.2873   62.8141 H       1  ZINC000822449555    0.0600
     39 H39        -8.0736    3.9542   61.7709 H       1  ZINC000822449555    0.1400
     40 H40        -7.9569    4.4852   59.3489 H       1  ZINC000822449555    0.1500
     41 H41        -9.4660    2.8390   56.8777 H       1  ZINC000822449555    0.4100
     42 H42        -9.3002    4.3099   55.2684 H       1  ZINC000822449555    0.1600
     43 H43        -9.1360    4.7256   52.8284 H       1  ZINC000822449555    0.1600
     44 H44        -8.0658    4.8229   48.4266 H       1  ZINC000822449555    0.4800
     45 H45        -5.5079    2.3043   55.0520 H       1  ZINC000822449555    0.1700
@<TRIPOS>BOND
     1     1     2    1
     2     1    28    1
     3     1    29    1
     4     1    30    1
     5     2    13   ar
     6     2     3   ar
     7     3     4   ar
     8     4     5    1
     9     4    11   ar
    10     5    10    1
    11     5     6    1
    12     6     7    1
    13     6    31    1
    14     6    32    1
    15     7     8    1
    16     7    33    1
    17     7    34    1
    18     8     9    1
    19     9    10    1
    20     9    35    1
    21     9    36    1
    22    10    37    1
    23    10    38    1
    24    11    12   ar
    25    11    39    1
    26    12    13   ar
    27    12    40    1
    28    13    14    1
    29    14    15   am
    30    14    41    1
    31    15    16    2
    32    15    17    1
    33    17    27   ar
    34    17    18   ar
    35    18    19   ar
    36    18    42    1
    37    19    20   ar
    38    19    43    1
    39    20    21    1
    40    20    26   ar
    41    21    25    1
    42    21    22    2
    43    22    23    1
    44    23    24    1
    45    23    44    1
    46    24    25    2
    47    26    27   ar
    48    27    45    1
@<TRIPOS>SUBSTRUCTURE
     1 ZINC000822449555        1 TEMP              0 ****  ****    0 ROOT


##########                                Name:    ZINC001067316277
##########                DOCK_Rotatable_Bonds:                   5
##########                         Heavy_Atoms:                  24
##########                    Molecular_Weight:             345.469
##########                DOCK_Rotatable_Bonds:                   5
##########                       Formal_Charge:          -0.0200007
##########                     HBond_Acceptors:                   7
##########                        HBond_Donors:                   2
##########                         Heavy_Atoms:                  24
##########                          Grid_Score:          -28.159054
##########                     Grid_vdw_energy:          -27.961782
##########                      Grid_es_energy:           -0.197271
##########           Internal_energy_repulsive:            9.662443

@<TRIPOS>MOLECULE
ZINC001067316277
 47 49 1 0 0
SMALL
USER_CHARGES


@<TRIPOS>ATOM
      1 C1         -2.0173    5.3790   52.5630 C.3     1  ZINC001067316277   -0.1400
      2 S2         -3.6336    4.6902   52.9981 S.3     1  ZINC001067316277   -0.0400
      3 C3         -3.7124    3.3503   51.8568 C.ar    1  ZINC001067316277    0.1800
      4 C4         -4.8630    2.5630   51.7663 C.ar    1  ZINC001067316277   -0.2400
      5 C5         -4.8800    1.5234   50.8575 C.ar    1  ZINC001067316277    0.1900
      6 N6         -3.8128    1.3040   50.1032 N.ar    1  ZINC001067316277   -0.5600
      7 C7         -2.7345    2.0667   50.2098 C.ar    1  ZINC001067316277    0.5100
      8 N8         -1.6404    1.8049   49.4037 N.3     1  ZINC001067316277   -0.4600
      9 C9         -1.5857    0.3843   49.0359 C.3     1  ZINC001067316277    0.0700
     10 C10        -0.2911    0.1038   48.2696 C.3     1  ZINC001067316277   -0.1300
     11 C11        -0.2480    0.9777   47.0131 C.3     1  ZINC001067316277    0.1600
     12 H12        -1.0818    0.7187   46.3606 H       1  ZINC001067316277    0.0900
     13 N13         1.0152    0.7551   46.3050 N.am    1  ZINC001067316277   -0.7200
     14 C14         1.0075    0.4575   44.9906 C.2     1  ZINC001067316277    0.5900
     15 O15        -0.0487    0.3722   44.3921 O.2     1  ZINC001067316277   -0.5300
     16 C16         2.2722    0.2364   44.2813 C.2     1  ZINC001067316277   -0.0600
     17 C17         3.5355    0.2956   44.8302 C.2     1  ZINC001067316277   -0.1000
     18 C18         4.4433    0.0209   43.8027 C.2     1  ZINC001067316277   -0.2100
     19 C19         3.7343   -0.1964   42.6691 C.2     1  ZINC001067316277    0.0300
     20 N20         2.4136   -0.0738   42.9477 N.pl3   1  ZINC001067316277   -0.5400
     21 C21        -0.3552    2.4497   47.4206 C.3     1  ZINC001067316277   -0.0700
     22 C22         0.8445    2.8272   48.2920 C.3     1  ZINC001067316277   -0.1400
     23 C23        -0.3722    3.3269   46.1671 C.3     1  ZINC001067316277   -0.1400
     24 C24        -1.6480    2.6621   48.2115 C.3     1  ZINC001067316277    0.0800
     25 N25        -2.6796    3.0767   51.0646 N.ar    1  ZINC001067316277   -0.5400
     26 H26        -1.2473    4.6225   52.7141 H       1  ZINC001067316277    0.0900
     27 H27        -2.0233    5.6875   51.5175 H       1  ZINC001067316277    0.0900
     28 H28        -1.8078    6.2420   53.1952 H       1  ZINC001067316277    0.1000
     29 H29        -5.7196    2.7626   52.3931 H       1  ZINC001067316277    0.1500
     30 H30        -5.7536    0.8955   50.7627 H       1  ZINC001067316277    0.1700
     31 H31        -1.6129   -0.2259   49.9387 H       1  ZINC001067316277    0.1000
     32 H32        -2.4409    0.1390   48.4062 H       1  ZINC001067316277    0.0500
     33 H33         0.5646    0.3358   48.9038 H       1  ZINC001067316277    0.0800
     34 H34        -0.2582   -0.9473   47.9832 H       1  ZINC001067316277    0.0800
     35 H35         1.8570    0.8219   46.7823 H       1  ZINC001067316277    0.3900
     36 H36         3.7784    0.5133   45.8598 H       1  ZINC001067316277    0.1500
     37 H37         5.5187   -0.0119   43.8961 H       1  ZINC001067316277    0.1500
     38 H38         4.1530   -0.4326   41.7019 H       1  ZINC001067316277    0.1700
     39 H39         1.6889   -0.1811   42.3119 H       1  ZINC001067316277    0.4100
     40 H40         1.7652    2.6723   47.7294 H       1  ZINC001067316277    0.0500
     41 H41         0.7677    3.8751   48.5818 H       1  ZINC001067316277    0.0600
     42 H42         0.8554    2.2029   49.1854 H       1  ZINC001067316277    0.0700
     43 H43        -1.2279    3.0585   45.5475 H       1  ZINC001067316277    0.0600
     44 H44        -0.4485    4.3746   46.4579 H       1  ZINC001067316277    0.0600
     45 H45         0.5476    3.1724   45.6031 H       1  ZINC001067316277    0.0600
     46 H46        -2.5028    2.4062   47.5856 H       1  ZINC001067316277    0.0600
     47 H47        -1.7203    3.7064   48.5155 H       1  ZINC001067316277    0.1000
@<TRIPOS>BOND
     1     1     2    1
     2     1    26    1
     3     1    27    1
     4     1    28    1
     5     2     3    1
     6     3    25   ar
     7     3     4   ar
     8     4     5   ar
     9     4    29    1
    10     5     6   ar
    11     5    30    1
    12     6     7   ar
    13     7     8    1
    14     7    25   ar
    15     8    24    1
    16     8     9    1
    17     9    10    1
    18     9    31    1
    19     9    32    1
    20    10    11    1
    21    10    33    1
    22    10    34    1
    23    11    12    1
    24    11    13    1
    25    11    21    1
    26    13    14   am
    27    13    35    1
    28    14    15    2
    29    14    16    1
    30    16    20    1
    31    16    17    2
    32    17    18    1
    33    17    36    1
    34    18    19    2
    35    18    37    1
    36    19    20    1
    37    19    38    1
    38    20    39    1
    39    21    22    1
    40    21    23    1
    41    21    24    1
    42    22    40    1
    43    22    41    1
    44    22    42    1
    45    23    43    1
    46    23    44    1
    47    23    45    1
    48    24    46    1
    49    24    47    1
@<TRIPOS>SUBSTRUCTURE
     1 ZINC001067316277        1 TEMP              0 ****  ****    0 ROOT


##########                                Name:    ZINC000440379747
##########                DOCK_Rotatable_Bonds:                   8
##########                         Heavy_Atoms:                  27
##########                    Molecular_Weight:             394.452
##########                DOCK_Rotatable_Bonds:                   8
##########                       Formal_Charge:           0.0199995
##########                     HBond_Acceptors:                  10
##########                        HBond_Donors:                   3
##########                         Heavy_Atoms:                  27
##########                          Grid_Score:          -28.157442
##########                     Grid_vdw_energy:          -25.211164
##########                      Grid_es_energy:           -2.946277
##########           Internal_energy_repulsive:           17.875471

@<TRIPOS>MOLECULE
ZINC000440379747
 49 51 1 0 0
SMALL
USER_CHARGES


@<TRIPOS>ATOM
      1 C1        -13.3256    2.3219   46.8186 C.3     1  ZINC000440379747   -0.1800
      2 C2        -13.4785    1.5891   48.1266 C.2     1  ZINC000440379747    0.5200
      3 O3        -14.1331    0.5692   48.1773 O.2     1  ZINC000440379747   -0.5200
      4 N4        -12.8881    2.0670   49.2399 N.am    1  ZINC000440379747   -0.5500
      5 C5        -12.0757    3.2849   49.3032 C.3     1  ZINC000440379747    0.1100
      6 C6        -11.6348    3.4001   50.7714 C.3     1  ZINC000440379747   -0.0900
      7 C7        -12.2520    2.1981   51.4504 C.ar    1  ZINC000440379747   -0.1100
      8 C8        -12.2007    1.7766   52.7641 C.ar    1  ZINC000440379747   -0.0700
      9 C9        -12.8626    0.6178   53.1502 C.ar    1  ZINC000440379747    0.1200
     10 N10       -12.8120    0.1898   54.4804 N.am    1  ZINC000440379747   -0.6400
     11 C11       -11.8751   -0.6985   54.8672 C.2     1  ZINC000440379747    0.5100
     12 O12       -11.0752   -1.1269   54.0609 O.2     1  ZINC000440379747   -0.4900
     13 C13       -11.8211   -1.1556   56.2879 C.2     1  ZINC000440379747    0.5200
     14 O14       -10.7866   -1.0640   56.9159 O.2     1  ZINC000440379747   -0.5100
     15 N15       -12.9211   -1.6700   56.8725 N.am    1  ZINC000440379747   -0.5800
     16 C16       -14.2369   -1.8384   56.2292 C.3     1  ZINC000440379747    0.1000
     17 C17       -14.9255   -2.9742   57.0265 C.3     1  ZINC000440379747   -0.1300
     18 C18       -14.4447   -2.6765   58.4713 C.3     1  ZINC000440379747   -0.1600
     19 C19       -13.0059   -2.1620   58.2553 C.3     1  ZINC000440379747    0.1500
     20 H20       -12.2949   -2.9737   58.4095 H       1  ZINC000440379747    0.1000
     21 C21       -12.7101   -1.0195   59.2291 C.3     1  ZINC000440379747   -0.6500
     22 S22       -12.6390   -1.6703   60.9209 S.o2    1  ZINC000440379747    2.6200
     23 N23       -12.2514   -0.3573   61.8526 N.am    1  ZINC000440379747   -1.2500
     24 O24       -13.9354   -2.0453   61.3659 O.2     1  ZINC000440379747   -0.9500
     25 O25       -11.5306   -2.5465   61.0719 O.2     1  ZINC000440379747   -0.9500
     26 C26       -13.5753   -0.1133   52.2082 C.ar    1  ZINC000440379747   -0.1000
     27 C27       -13.6252    0.3092   50.8978 C.ar    1  ZINC000440379747   -0.1400
     28 C28       -12.9661    1.4762   50.5063 C.ar    1  ZINC000440379747    0.1400
     29 H29       -13.8688    1.7893   46.0381 H       1  ZINC000440379747    0.1000
     30 H30       -13.7276    3.3301   46.9179 H       1  ZINC000440379747    0.1000
     31 H31       -12.2696    2.3762   46.5540 H       1  ZINC000440379747    0.1000
     32 H32       -11.2055    3.1930   48.6532 H       1  ZINC000440379747    0.0900
     33 H33       -12.6715    4.1520   49.0182 H       1  ZINC000440379747    0.0900
     34 H34       -10.5480    3.3624   50.8459 H       1  ZINC000440379747    0.0900
     35 H35       -12.0151    4.3221   51.2112 H       1  ZINC000440379747    0.1000
     36 H36       -11.6450    2.3484   53.4924 H       1  ZINC000440379747    0.1400
     37 H37       -13.4512    0.5320   55.1246 H       1  ZINC000440379747    0.4200
     38 H38       -14.8159   -0.9179   56.3033 H       1  ZINC000440379747    0.0800
     39 H39       -14.1147   -2.1277   55.1855 H       1  ZINC000440379747    0.1000
     40 H40       -16.0106   -2.9008   56.9529 H       1  ZINC000440379747    0.1000
     41 H41       -14.5781   -3.9520   56.6927 H       1  ZINC000440379747    0.0800
     42 H42       -15.0665   -1.9106   58.9346 H       1  ZINC000440379747    0.1000
     43 H43       -14.4403   -3.5864   59.0715 H       1  ZINC000440379747    0.1000
     44 H44       -11.7533   -0.5637   58.9746 H       1  ZINC000440379747    0.1500
     45 H45       -13.4991   -0.2706   59.1608 H       1  ZINC000440379747    0.1400
     46 H46       -11.4229    0.1220   61.6947 H       1  ZINC000440379747    0.4100
     47 H47       -12.8527   -0.0674   62.5564 H       1  ZINC000440379747    0.4200
     48 H48       -14.0911   -1.0149   52.5037 H       1  ZINC000440379747    0.1400
     49 H49       -14.1806   -0.2636   50.1699 H       1  ZINC000440379747    0.1500
@<TRIPOS>BOND
     1     1     2    1
     2     1    29    1
     3     1    30    1
     4     1    31    1
     5     2     3    2
     6     2     4   am
     7     4    28    1
     8     4     5    1
     9     5     6    1
    10     5    32    1
    11     5    33    1
    12     6     7    1
    13     6    34    1
    14     6    35    1
    15     7    28   ar
    16     7     8   ar
    17     8     9   ar
    18     8    36    1
    19     9    10    1
    20     9    26   ar
    21    10    11   am
    22    10    37    1
    23    11    12    2
    24    11    13    1
    25    13    14    2
    26    13    15   am
    27    15    19    1
    28    15    16    1
    29    16    17    1
    30    16    38    1
    31    16    39    1
    32    17    18    1
    33    17    40    1
    34    17    41    1
    35    18    19    1
    36    18    42    1
    37    18    43    1
    38    19    20    1
    39    19    21    1
    40    21    22    1
    41    21    44    1
    42    21    45    1
    43    22    23   am
    44    22    24    2
    45    22    25    2
    46    23    46    1
    47    23    47    1
    48    26    27   ar
    49    26    48    1
    50    27    28   ar
    51    27    49    1
@<TRIPOS>SUBSTRUCTURE
     1 ZINC000440379747        1 TEMP              0 ****  ****    0 ROOT


##########                                Name:    ZINC001109404798
##########                DOCK_Rotatable_Bonds:                   7
##########                         Heavy_Atoms:                  25
##########                    Molecular_Weight:              360.48
##########                DOCK_Rotatable_Bonds:                   7
##########                       Formal_Charge:           0.0100002
##########                     HBond_Acceptors:                   7
##########                        HBond_Donors:                   1
##########                         Heavy_Atoms:                  25
##########                          Grid_Score:          -28.137398
##########                     Grid_vdw_energy:          -26.854559
##########                      Grid_es_energy:           -1.282838
##########           Internal_energy_repulsive:           25.028612

@<TRIPOS>MOLECULE
ZINC001109404798
 49 52 1 0 0
SMALL
USER_CHARGES


@<TRIPOS>ATOM
      1 C1        -13.7221    0.1810   62.5539 C.3     1  ZINC001109404798   -0.0600
      2 C2        -13.7930   -0.7562   61.3759 C.2     1  ZINC001109404798    0.1700
      3 N3        -13.4297   -2.0039   61.3628 N.2     1  ZINC001109404798   -0.3900
      4 O4        -13.6130   -2.4831   60.2637 O.3     1  ZINC001109404798    0.1000
      5 C5        -14.1262   -1.5586   59.4464 C.2     1  ZINC001109404798    0.1900
      6 C6        -14.4978   -1.7477   57.9983 C.3     1  ZINC001109404798    0.1600
      7 H7        -15.1475   -0.9323   57.6803 H       1  ZINC001109404798    0.1000
      8 C8        -15.2317   -3.0797   57.8298 C.3     1  ZINC001109404798   -0.1500
      9 N9        -13.2800   -1.7523   57.1768 N.3     1  ZINC001109404798   -0.4800
     10 C10       -12.5026   -0.4745   57.3568 C.3     1  ZINC001109404798    0.0400
     11 H11       -12.1156   -0.2902   58.3590 H       1  ZINC001109404798    0.1100
     12 C12       -13.5264    0.5745   56.8273 C.3     1  ZINC001109404798   -0.1600
     13 C13       -14.2818   -0.1883   55.7115 C.3     1  ZINC001109404798   -0.1600
     14 C14       -13.6135   -1.5963   55.7160 C.3     1  ZINC001109404798    0.0400
     15 H15       -14.2041   -2.3990   55.2744 H       1  ZINC001109404798    0.1200
     16 C16       -12.2031   -1.3761   55.0906 C.3     1  ZINC001109404798    0.1500
     17 H17       -11.7220   -2.3319   54.8829 H       1  ZINC001109404798    0.1000
     18 N18       -12.3001   -0.5732   53.8692 N.am    1  ZINC001109404798   -0.7200
     19 C19       -11.3087   -0.6117   52.9570 C.2     1  ZINC001109404798    0.5100
     20 O20       -10.3370   -1.3123   53.1465 O.2     1  ZINC001109404798   -0.5300
     21 C21       -11.4076    0.2157   51.7012 C.3     1  ZINC001109404798   -0.1300
     22 C22       -12.8795    0.4004   51.3267 C.3     1  ZINC001109404798   -0.0400
     23 C23       -12.9751    1.1000   49.9954 C.2     1  ZINC001109404798   -0.1000
     24 C24       -13.0774    0.4372   48.8424 C.2     1  ZINC001109404798   -0.2100
     25 S25       -13.1663    1.5819   47.5099 S.3     1  ZINC001109404798    0.1000
     26 C26       -13.0565    2.9362   48.6268 C.2     1  ZINC001109404798   -0.2100
     27 C27       -12.9696    2.4791   49.8769 C.2     1  ZINC001109404798   -0.1300
     28 C28       -11.4285   -0.6188   56.2367 C.3     1  ZINC001109404798   -0.1100
     29 N29       -14.2494   -0.4567   60.1468 N.2     1  ZINC001109404798   -0.4800
     30 H30       -14.6516    0.1236   63.1204 H       1  ZINC001109404798    0.0900
     31 H31       -12.8878   -0.1037   63.1951 H       1  ZINC001109404798    0.0900
     32 H32       -13.5757    1.2008   62.1984 H       1  ZINC001109404798    0.0900
     33 H33       -16.1353   -3.0763   58.4394 H       1  ZINC001109404798    0.0700
     34 H34       -15.5005   -3.2164   56.7823 H       1  ZINC001109404798    0.0800
     35 H35       -14.5820   -3.8952   58.1478 H       1  ZINC001109404798    0.0800
     36 H36       -14.2126    0.8746   57.6192 H       1  ZINC001109404798    0.0700
     37 H37       -13.0095    1.4418   56.4168 H       1  ZINC001109404798    0.0800
     38 H38       -15.3425   -0.2663   55.9504 H       1  ZINC001109404798    0.0700
     39 H39       -14.1394    0.3010   54.7480 H       1  ZINC001109404798    0.0800
     40 H40       -13.0777   -0.0137   53.7169 H       1  ZINC001109404798    0.4000
     41 H41       -10.9508    1.1906   51.8715 H       1  ZINC001109404798    0.0900
     42 H42       -10.8871   -0.2925   50.8894 H       1  ZINC001109404798    0.1000
     43 H43       -13.3626   -0.5745   51.2605 H       1  ZINC001109404798    0.0800
     44 H44       -13.3757    1.0008   52.0891 H       1  ZINC001109404798    0.0800
     45 H45       -13.1015   -0.6379   48.7421 H       1  ZINC001109404798    0.1600
     46 H46       -13.0632    3.9785   48.3440 H       1  ZINC001109404798    0.1600
     47 H47       -12.8925    3.1353   50.7313 H       1  ZINC001109404798    0.1400
     48 H48       -11.1139    0.3689   55.8994 H       1  ZINC001109404798    0.0800
     49 H49       -10.5709   -1.2026   56.5710 H       1  ZINC001109404798    0.0900
@<TRIPOS>BOND
     1     1     2    1
     2     1    30    1
     3     1    31    1
     4     1    32    1
     5     2    29    1
     6     2     3    2
     7     3     4    1
     8     4     5    1
     9     5     6    1
    10     5    29    2
    11     6     7    1
    12     6     8    1
    13     6     9    1
    14     8    33    1
    15     8    34    1
    16     8    35    1
    17     9    14    1
    18     9    10    1
    19    10    11    1
    20    10    28    1
    21    10    12    1
    22    12    13    1
    23    12    36    1
    24    12    37    1
    25    13    14    1
    26    13    38    1
    27    13    39    1
    28    14    15    1
    29    14    16    1
    30    16    17    1
    31    16    18    1
    32    16    28    1
    33    18    19   am
    34    18    40    1
    35    19    20    2
    36    19    21    1
    37    21    22    1
    38    21    41    1
    39    21    42    1
    40    22    23    1
    41    22    43    1
    42    22    44    1
    43    23    27    1
    44    23    24    2
    45    24    25    1
    46    24    45    1
    47    25    26    1
    48    26    27    2
    49    26    46    1
    50    27    47    1
    51    28    48    1
    52    28    49    1
@<TRIPOS>SUBSTRUCTURE
     1 ZINC001109404798        1 TEMP              0 ****  ****    0 ROOT


##########                                Name:    ZINC000179211660
##########                DOCK_Rotatable_Bonds:                   6
##########                         Heavy_Atoms:                  23
##########                    Molecular_Weight:             385.208
##########                DOCK_Rotatable_Bonds:                   6
##########                       Formal_Charge:        -1.78814e-07
##########                     HBond_Acceptors:                   6
##########                        HBond_Donors:                   1
##########                         Heavy_Atoms:                  23
##########                          Grid_Score:          -28.133902
##########                     Grid_vdw_energy:          -26.819624
##########                      Grid_es_energy:           -1.314277
##########           Internal_energy_repulsive:           14.427214

@<TRIPOS>MOLECULE
ZINC000179211660
 38 39 1 0 0
SMALL
USER_CHARGES


@<TRIPOS>ATOM
      1 C1         -8.7527    3.4257   54.0248 C.3     1  ZINC000179211660    0.0300
      2 O2         -7.5603    3.2135   53.2663 O.3     1  ZINC000179211660   -0.2700
      3 C3         -7.4544    2.0334   52.6005 C.ar    1  ZINC000179211660    0.1500
      4 C4         -8.4388    1.0662   52.7403 C.ar    1  ZINC000179211660   -0.2200
      5 C5         -8.3290   -0.1325   52.0619 C.ar    1  ZINC000179211660   -0.0700
      6 C6         -7.2392   -0.3685   51.2449 C.ar    1  ZINC000179211660   -0.1700
      7 C7         -6.2562    0.5941   51.1043 C.ar    1  ZINC000179211660   -0.0700
      8 C8         -6.3643    1.7965   51.7755 C.ar    1  ZINC000179211660   -0.1500
      9 C9         -5.2931    2.8451   51.6214 C.3     1  ZINC000179211660    0.1800
     10 N10        -5.0225    3.0613   50.1979 N.am    1  ZINC000179211660   -0.6200
     11 C11        -6.0067    3.7533   49.3620 C.3     1  ZINC000179211660    0.0700
     12 C12        -3.8681    2.6236   49.6573 C.2     1  ZINC000179211660    0.7000
     13 O13        -3.6428    2.8043   48.4762 O.2     1  ZINC000179211660   -0.5300
     14 N14        -2.9634    1.9855   50.4260 N.am    1  ZINC000179211660   -0.6800
     15 C15        -1.7633    1.5304   49.8641 C.ar    1  ZINC000179211660    0.1900
     16 C16        -1.7146    0.2934   49.2376 C.ar    1  ZINC000179211660   -0.1400
     17 C17        -0.5282   -0.1537   48.6831 C.ar    1  ZINC000179211660    0.1500
     18 F18        -0.4800   -1.3580   48.0728 F       1  ZINC000179211660   -0.1100
     19 C19         0.6098    0.6330   48.7526 C.ar    1  ZINC000179211660   -0.1300
     20 Br20        2.2293    0.0194   47.9932 Br      1  ZINC000179211660   -0.0100
     21 C21         0.5635    1.8672   49.3765 C.ar    1  ZINC000179211660   -0.0700
     22 C22        -0.6205    2.3202   49.9283 C.ar    1  ZINC000179211660    0.0600
     23 F23        -0.6650    3.5253   50.5373 F       1  ZINC000179211660   -0.1300
     24 H24        -8.7088    4.4033   54.5049 H       1  ZINC000179211660    0.1000
     25 H25        -9.6170    3.3847   53.3621 H       1  ZINC000179211660    0.0500
     26 H26        -8.8416    2.6508   54.7863 H       1  ZINC000179211660    0.0500
     27 H27        -9.2901    1.2498   53.3790 H       1  ZINC000179211660    0.1300
     28 H28        -9.0952   -0.8859   52.1705 H       1  ZINC000179211660    0.1200
     29 H29        -7.1549   -1.3062   50.7158 H       1  ZINC000179211660    0.1200
     30 H30        -5.4055    0.4072   50.4657 H       1  ZINC000179211660    0.1300
     31 H31        -5.6304    3.7781   52.0729 H       1  ZINC000179211660    0.0900
     32 H32        -4.3823    2.5099   52.1175 H       1  ZINC000179211660    0.1000
     33 H33        -5.8061    4.8246   49.3760 H       1  ZINC000179211660    0.0600
     34 H34        -5.9381    3.3840   48.3388 H       1  ZINC000179211660    0.0600
     35 H35        -7.0082    3.5662   49.7495 H       1  ZINC000179211660    0.0800
     36 H36        -3.1431    1.8413   51.3682 H       1  ZINC000179211660    0.4100
     37 H37        -2.6016   -0.3202   49.1831 H       1  ZINC000179211660    0.1800
     38 H38         1.4521    2.4786   49.4294 H       1  ZINC000179211660    0.1600
@<TRIPOS>BOND
     1     1     2    1
     2     1    24    1
     3     1    25    1
     4     1    26    1
     5     2     3    1
     6     3     8   ar
     7     3     4   ar
     8     4     5   ar
     9     4    27    1
    10     5     6   ar
    11     5    28    1
    12     6     7   ar
    13     6    29    1
    14     7     8   ar
    15     7    30    1
    16     8     9    1
    17     9    10    1
    18     9    31    1
    19     9    32    1
    20    10    11    1
    21    10    12   am
    22    11    33    1
    23    11    34    1
    24    11    35    1
    25    12    13    2
    26    12    14   am
    27    14    15    1
    28    14    36    1
    29    15    22   ar
    30    15    16   ar
    31    16    17   ar
    32    16    37    1
    33    17    18    1
    34    17    19   ar
    35    19    20    1
    36    19    21   ar
    37    21    22   ar
    38    21    38    1
    39    22    23    1
@<TRIPOS>SUBSTRUCTURE
     1 ZINC000179211660        1 TEMP              0 ****  ****    0 ROOT


##########                                Name:    ZINC001098311495
##########                DOCK_Rotatable_Bonds:                   8
##########                         Heavy_Atoms:                  24
##########                    Molecular_Weight:             328.454
##########                DOCK_Rotatable_Bonds:                   8
##########                       Formal_Charge:          0.00999987
##########                     HBond_Acceptors:                   4
##########                        HBond_Donors:                   1
##########                         Heavy_Atoms:                  24
##########                          Grid_Score:          -28.111769
##########                     Grid_vdw_energy:          -27.463562
##########                      Grid_es_energy:           -0.648207
##########           Internal_energy_repulsive:           34.875149

@<TRIPOS>MOLECULE
ZINC001098311495
 52 54 1 0 0
SMALL
USER_CHARGES


@<TRIPOS>ATOM
      1 C1         -5.6080    4.3791   54.3397 C.3     1  ZINC001098311495   -0.1500
      2 C2         -5.9978    2.9071   54.1911 C.3     1  ZINC001098311495    0.0500
      3 O3         -5.5234    2.4130   52.9370 O.3     1  ZINC001098311495   -0.2800
      4 C4         -6.0722    2.9471   51.8173 C.ar    1  ZINC001098311495    0.1900
      5 C5         -7.3126    3.5643   51.8758 C.ar    1  ZINC001098311495   -0.2200
      6 C6         -7.8730    4.1018   50.7338 C.ar    1  ZINC001098311495   -0.0500
      7 C7         -7.2000    4.0353   49.5250 C.ar    1  ZINC001098311495   -0.1700
      8 C8         -5.9636    3.4309   49.4497 C.ar    1  ZINC001098311495   -0.0500
      9 C9         -5.3854    2.8828   50.5970 C.ar    1  ZINC001098311495   -0.1800
     10 C10        -4.0621    2.2344   50.5236 C.2     1  ZINC001098311495    0.5600
     11 O11        -3.6171    1.6497   51.4924 O.2     1  ZINC001098311495   -0.5200
     12 N12        -3.3466    2.2904   49.3829 N.am    1  ZINC001098311495   -0.7200
     13 C13        -2.0334    1.6451   49.3095 C.3     1  ZINC001098311495    0.1600
     14 H14        -2.0209    0.7340   49.9076 H       1  ZINC001098311495    0.1000
     15 C15        -0.9211    2.6189   49.7701 C.3     1  ZINC001098311495   -0.1200
     16 C16        -0.0205    2.7671   48.5068 C.3     1  ZINC001098311495    0.0500
     17 H17         0.6056    3.6587   48.4772 H       1  ZINC001098311495    0.1100
     18 C18         0.7331    1.4104   48.3641 C.3     1  ZINC001098311495   -0.1500
     19 C19        -0.3708    0.4306   47.8965 C.3     1  ZINC001098311495   -0.1500
     20 C20        -1.6564    1.3351   47.8294 C.3     1  ZINC001098311495    0.0400
     21 H21        -2.4613    0.9608   47.1969 H       1  ZINC001098311495    0.1200
     22 N22        -1.0437    2.6453   47.4077 N.3     1  ZINC001098311495   -0.4900
     23 C23        -0.3947    2.5247   46.0954 C.3     1  ZINC001098311495    0.0600
     24 C24         0.1386    3.8695   45.6732 C.2     1  ZINC001098311495   -0.1600
     25 C25         0.9095    3.9666   44.6185 C.2     1  ZINC001098311495   -0.1200
     26 C26         1.4428    5.3113   44.1963 C.3     1  ZINC001098311495   -0.1200
     27 C27         1.2629    2.7336   43.8274 C.3     1  ZINC001098311495   -0.1200
     28 H28        -4.5229    4.4735   54.2990 H       1  ZINC001098311495    0.0700
     29 H29        -6.0536    4.9565   53.5297 H       1  ZINC001098311495    0.0700
     30 H30        -5.9698    4.7560   55.2964 H       1  ZINC001098311495    0.0800
     31 H31        -7.0829    2.8127   54.2318 H       1  ZINC001098311495    0.0600
     32 H32        -5.5521    2.3297   55.0011 H       1  ZINC001098311495    0.0600
     33 H33        -7.8432    3.6205   52.8147 H       1  ZINC001098311495    0.1300
     34 H34        -8.8413    4.5773   50.7835 H       1  ZINC001098311495    0.1300
     35 H35        -7.6461    4.4591   48.6374 H       1  ZINC001098311495    0.1300
     36 H36        -5.4426    3.3810   48.5051 H       1  ZINC001098311495    0.1300
     37 H37        -3.7011    2.7580   48.6104 H       1  ZINC001098311495    0.4000
     38 H38        -0.3546    2.1908   50.5971 H       1  ZINC001098311495    0.0800
     39 H39        -1.3468    3.5815   50.0530 H       1  ZINC001098311495    0.0800
     40 H40         1.5214    1.4862   47.6152 H       1  ZINC001098311495    0.0700
     41 H41         1.1433    1.0965   49.3241 H       1  ZINC001098311495    0.0800
     42 H42        -0.1296    0.0207   46.9156 H       1  ZINC001098311495    0.0700
     43 H43        -0.5078   -0.3690   48.6245 H       1  ZINC001098311495    0.0800
     44 H44        -1.1211    2.1753   45.3616 H       1  ZINC001098311495    0.0500
     45 H45         0.4274    1.8119   46.1607 H       1  ZINC001098311495    0.0800
     46 H46        -0.1148    4.7531   46.2401 H       1  ZINC001098311495    0.1100
     47 H47         0.7436    5.7780   43.5025 H       1  ZINC001098311495    0.0700
     48 H48         2.4083    5.1820   43.7071 H       1  ZINC001098311495    0.0600
     49 H49         1.5625    5.9466   45.0739 H       1  ZINC001098311495    0.0600
     50 H50         2.1240    2.2443   44.2826 H       1  ZINC001098311495    0.0700
     51 H51         0.4152    2.0484   43.8244 H       1  ZINC001098311495    0.0600
     52 H52         1.5052    3.0163   42.8029 H       1  ZINC001098311495    0.0600
@<TRIPOS>BOND
     1     1     2    1
     2     1    28    1
     3     1    29    1
     4     1    30    1
     5     2     3    1
     6     2    31    1
     7     2    32    1
     8     3     4    1
     9     4     9   ar
    10     4     5   ar
    11     5     6   ar
    12     5    33    1
    13     6     7   ar
    14     6    34    1
    15     7     8   ar
    16     7    35    1
    17     8     9   ar
    18     8    36    1
    19     9    10    1
    20    10    11    2
    21    10    12   am
    22    12    13    1
    23    12    37    1
    24    13    14    1
    25    13    20    1
    26    13    15    1
    27    15    16    1
    28    15    38    1
    29    15    39    1
    30    16    17    1
    31    16    22    1
    32    16    18    1
    33    18    19    1
    34    18    40    1
    35    18    41    1
    36    19    20    1
    37    19    42    1
    38    19    43    1
    39    20    21    1
    40    20    22    1
    41    22    23    1
    42    23    24    1
    43    23    44    1
    44    23    45    1
    45    24    25    2
    46    24    46    1
    47    25    26    1
    48    25    27    1
    49    26    47    1
    50    26    48    1
    51    26    49    1
    52    27    50    1
    53    27    51    1
    54    27    52    1
@<TRIPOS>SUBSTRUCTURE
     1 ZINC001098311495        1 TEMP              0 ****  ****    0 ROOT


##########                                Name:    ZINC000867639366
##########                DOCK_Rotatable_Bonds:                   6
##########                         Heavy_Atoms:                  25
##########                    Molecular_Weight:             388.509
##########                DOCK_Rotatable_Bonds:                   6
##########                       Formal_Charge:          0.00999961
##########                     HBond_Acceptors:                   9
##########                        HBond_Donors:                   1
##########                         Heavy_Atoms:                  25
##########                          Grid_Score:          -28.106047
##########                     Grid_vdw_energy:          -28.201801
##########                      Grid_es_energy:            0.095755
##########           Internal_energy_repulsive:           40.345596

@<TRIPOS>MOLECULE
ZINC000867639366
 49 51 1 0 0
SMALL
USER_CHARGES


@<TRIPOS>ATOM
      1 C1          2.5372    0.6623   44.2242 C.3     1  ZINC000867639366    0.0300
      2 O2          1.6331    1.0811   45.2486 O.3     1  ZINC000867639366   -0.3800
      3 C3          0.2805    1.2202   44.8089 C.3     1  ZINC000867639366    0.0800
      4 H4          0.0797    0.4991   44.0165 H       1  ZINC000867639366    0.0800
      5 C5          0.0595    2.6381   44.2772 C.3     1  ZINC000867639366   -0.1400
      6 C6          0.3738    3.6527   45.3790 C.3     1  ZINC000867639366   -0.1200
      7 C7         -0.5738    3.4265   46.5613 C.3     1  ZINC000867639366    0.1500
      8 H8         -1.5973    3.6433   46.2558 H       1  ZINC000867639366    0.0800
      9 C9         -0.1783    4.3457   47.7187 C.3     1  ZINC000867639366   -0.1900
     10 N10        -0.4732    2.0236   46.9862 N.am    1  ZINC000867639366   -0.9800
     11 S11        -0.1470    1.6413   48.5641 S.o2    1  ZINC000867639366    2.6900
     12 O12        -0.2685    0.2293   48.6682 O.2     1  ZINC000867639366   -0.9500
     13 O13         1.0362    2.3472   48.9117 O.2     1  ZINC000867639366   -0.9400
     14 C14        -1.4410    2.3256   49.5448 C.ar    1  ZINC000867639366   -0.6300
     15 C15        -2.7407    2.3226   49.0738 C.ar    1  ZINC000867639366   -0.0500
     16 C16        -3.7559    2.8594   49.8432 C.ar    1  ZINC000867639366   -0.0400
     17 C17        -3.4717    3.3989   51.0838 C.ar    1  ZINC000867639366   -0.6300
     18 S18        -4.7656    4.0837   52.0643 S.o2    1  ZINC000867639366    2.7000
     19 O19        -4.1423    4.6685   53.1994 O.2     1  ZINC000867639366   -0.9400
     20 O20        -5.6006    4.8121   51.1745 O.2     1  ZINC000867639366   -0.9500
     21 N21        -5.6742    2.8196   52.6290 N.am    1  ZINC000867639366   -1.0800
     22 C22        -6.3373    1.9155   51.6862 C.3     1  ZINC000867639366    0.0800
     23 C23        -6.1390    0.4122   51.8906 C.3     1  ZINC000867639366   -0.1800
     24 C24        -7.4866    1.0577   52.2194 C.3     1  ZINC000867639366   -0.1900
     25 C25        -2.1722    3.4006   51.5554 C.ar    1  ZINC000867639366   -0.0400
     26 C26        -1.1575    2.8603   50.7876 C.ar    1  ZINC000867639366   -0.0400
     27 C27        -0.6680    0.9656   45.9845 C.3     1  ZINC000867639366    0.1200
     28 H28         2.2236   -0.3070   43.8370 H       1  ZINC000867639366    0.0400
     29 H29         2.5353    1.3942   43.4165 H       1  ZINC000867639366    0.0400
     30 H30         3.5423    0.5805   44.6380 H       1  ZINC000867639366    0.0900
     31 H31         0.7160    2.8127   43.4247 H       1  ZINC000867639366    0.0700
     32 H32        -0.9786    2.7511   43.9649 H       1  ZINC000867639366    0.0700
     33 H33         1.4046    3.5237   45.7091 H       1  ZINC000867639366    0.0800
     34 H34         0.2387    4.6629   44.9927 H       1  ZINC000867639366    0.0800
     35 H35        -0.3764    5.3817   47.4439 H       1  ZINC000867639366    0.0700
     36 H36        -0.7601    4.0868   48.6033 H       1  ZINC000867639366    0.0600
     37 H37         0.8833    4.2234   47.9335 H       1  ZINC000867639366    0.1000
     38 H38        -2.9628    1.9012   48.1045 H       1  ZINC000867639366    0.1600
     39 H39        -4.7712    2.8578   49.4749 H       1  ZINC000867639366    0.1500
     40 H40        -5.7673    2.6778   53.5841 H       1  ZINC000867639366    0.4200
     41 H41        -6.4138    2.2786   50.6613 H       1  ZINC000867639366    0.1400
     42 H42        -6.0847   -0.2140   51.0000 H       1  ZINC000867639366    0.1100
     43 H43        -5.5151    0.0960   52.7266 H       1  ZINC000867639366    0.1000
     44 H44        -7.7493    1.1661   53.2717 H       1  ZINC000867639366    0.1000
     45 H45        -8.3190    0.8562   51.5452 H       1  ZINC000867639366    0.1000
     46 H46        -1.9502    3.8217   52.5248 H       1  ZINC000867639366    0.1500
     47 H47        -0.1423    2.8617   51.1560 H       1  ZINC000867639366    0.1500
     48 H48        -1.6994    0.9817   45.6320 H       1  ZINC000867639366    0.0900
     49 H49        -0.4470   -0.0044   46.4297 H       1  ZINC000867639366    0.1000
@<TRIPOS>BOND
     1     1     2    1
     2     1    28    1
     3     1    29    1
     4     1    30    1
     5     2     3    1
     6     3     4    1
     7     3    27    1
     8     3     5    1
     9     5     6    1
    10     5    31    1
    11     5    32    1
    12     6     7    1
    13     6    33    1
    14     6    34    1
    15     7     8    1
    16     7     9    1
    17     7    10    1
    18     9    35    1
    19     9    36    1
    20     9    37    1
    21    10    11   am
    22    10    27    1
    23    11    12    2
    24    11    13    2
    25    11    14    1
    26    14    26   ar
    27    14    15   ar
    28    15    16   ar
    29    15    38    1
    30    16    17   ar
    31    16    39    1
    32    17    18    1
    33    17    25   ar
    34    18    19    2
    35    18    20    2
    36    18    21   am
    37    21    22    1
    38    21    40    1
    39    22    24    1
    40    22    23    1
    41    22    41    1
    42    23    24    1
    43    23    42    1
    44    23    43    1
    45    24    44    1
    46    24    45    1
    47    25    26   ar
    48    25    46    1
    49    26    47    1
    50    27    48    1
    51    27    49    1
@<TRIPOS>SUBSTRUCTURE
     1 ZINC000867639366        1 TEMP              0 ****  ****    0 ROOT


##########                                Name:    ZINC000478980774
##########                DOCK_Rotatable_Bonds:                   4
##########                         Heavy_Atoms:                  26
##########                    Molecular_Weight:             401.818
##########                DOCK_Rotatable_Bonds:                   4
##########                       Formal_Charge:          -0.0100001
##########                     HBond_Acceptors:                   9
##########                        HBond_Donors:                   1
##########                         Heavy_Atoms:                  26
##########                          Grid_Score:          -28.104050
##########                     Grid_vdw_energy:          -27.285091
##########                      Grid_es_energy:           -0.818958
##########           Internal_energy_repulsive:            8.158453

@<TRIPOS>MOLECULE
ZINC000478980774
 40 42 1 0 0
SMALL
USER_CHARGES


@<TRIPOS>ATOM
      1 C1         -4.6614    2.9550   52.2896 C.3     1  ZINC000478980774   -0.1400
      2 C2         -5.2313    3.1801   50.8876 C.3     1  ZINC000478980774   -0.4600
      3 H3         -5.4535    4.2384   50.7513 H       1  ZINC000478980774    0.1500
      4 C4         -4.2211    2.7424   49.8585 C.2     1  ZINC000478980774    0.5400
      5 O5         -4.4880    2.8148   48.6775 O.2     1  ZINC000478980774   -0.5000
      6 N6         -3.0211    2.2704   50.2504 N.am    1  ZINC000478980774   -0.6600
      7 C7         -2.0820    1.8635   49.2937 C.ar    1  ZINC000478980774    0.1600
      8 C8         -1.9242    0.5149   49.0056 C.ar    1  ZINC000478980774   -0.1200
      9 C9         -0.9977    0.1119   48.0624 C.ar    1  ZINC000478980774   -0.0600
     10 C10        -0.2242    1.0521   47.4020 C.ar    1  ZINC000478980774    0.0100
     11 O11         0.7431    0.9177   46.4470 O.3     1  ZINC000478980774   -0.2900
     12 C12         0.8871    2.2243   45.8595 C.3     1  ZINC000478980774    0.5700
     13 F13         2.2181    2.4556   45.4954 F       1  ZINC000478980774   -0.1100
     14 F14         0.0451    2.3601   44.7506 F       1  ZINC000478980774   -0.1500
     15 O15         0.4882    3.1197   46.9140 O.3     1  ZINC000478980774   -0.2800
     16 C16        -0.3805    2.4066   47.6889 C.ar    1  ZINC000478980774    0.0500
     17 C17        -1.3128    2.8097   48.6296 C.ar    1  ZINC000478980774   -0.0900
     18 S18        -6.7530    2.2124   50.6908 S.o     1  ZINC000478980774    1.3000
     19 O19        -6.4575    0.8302   50.8366 O.2     1  ZINC000478980774   -0.7800
     20 C20        -7.7706    2.7638   52.0876 C.3     1  ZINC000478980774   -0.4300
     21 C21        -9.0916    2.0388   52.0636 C.ar    1  ZINC000478980774   -0.0600
     22 C22        -9.1346    0.6736   52.2731 C.ar    1  ZINC000478980774   -0.1100
     23 C23       -10.3465    0.0083   52.2510 C.ar    1  ZINC000478980774   -0.1100
     24 C24       -11.5156    0.7082   52.0190 C.ar    1  ZINC000478980774   -0.1100
     25 C25       -11.4738    2.0740   51.8093 C.ar    1  ZINC000478980774   -0.1100
     26 C26       -10.2623    2.7410   51.8374 C.ar    1  ZINC000478980774   -0.0300
     27 Cl27      -10.2090    4.4561   51.5742 Cl      1  ZINC000478980774   -0.0600
     28 H28        -5.3921    3.2715   53.0338 H       1  ZINC000478980774    0.0800
     29 H29        -4.4392    1.8966   52.4258 H       1  ZINC000478980774    0.0700
     30 H30        -3.7471    3.5363   52.4078 H       1  ZINC000478980774    0.0700
     31 H31        -2.8076    2.2122   51.1948 H       1  ZINC000478980774    0.4200
     32 H32        -2.5258   -0.2204   49.5194 H       1  ZINC000478980774    0.1500
     33 H33        -0.8766   -0.9379   47.8402 H       1  ZINC000478980774    0.1500
     34 H34        -1.4390    3.8594   48.8498 H       1  ZINC000478980774    0.1600
     35 H35        -7.2536    2.5459   53.0222 H       1  ZINC000478980774    0.1100
     36 H36        -7.9437    3.8370   52.0097 H       1  ZINC000478980774    0.1300
     37 H37        -8.2214    0.1261   52.4537 H       1  ZINC000478980774    0.1400
     38 H38       -10.3796   -1.0587   52.4147 H       1  ZINC000478980774    0.1300
     39 H39       -12.4618    0.1880   52.0011 H       1  ZINC000478980774    0.1300
     40 H40       -12.3873    2.6207   51.6281 H       1  ZINC000478980774    0.1300
@<TRIPOS>BOND
     1     1     2    1
     2     1    28    1
     3     1    29    1
     4     1    30    1
     5     2     3    1
     6     2     4    1
     7     2    18    1
     8     4     5    2
     9     4     6   am
    10     6     7    1
    11     6    31    1
    12     7    17   ar
    13     7     8   ar
    14     8     9   ar
    15     8    32    1
    16     9    10   ar
    17     9    33    1
    18    10    16   ar
    19    10    11    1
    20    11    12    1
    21    12    13    1
    22    12    14    1
    23    12    15    1
    24    15    16    1
    25    16    17   ar
    26    17    34    1
    27    18    19    2
    28    18    20    1
    29    20    21    1
    30    20    35    1
    31    20    36    1
    32    21    26   ar
    33    21    22   ar
    34    22    23   ar
    35    22    37    1
    36    23    24   ar
    37    23    38    1
    38    24    25   ar
    39    24    39    1
    40    25    26   ar
    41    25    40    1
    42    26    27    1
@<TRIPOS>SUBSTRUCTURE
     1 ZINC000478980774        1 TEMP              0 ****  ****    0 ROOT


##########                                Name:    ZINC000504638019
##########                DOCK_Rotatable_Bonds:                   8
##########                         Heavy_Atoms:                  24
##########                    Molecular_Weight:             328.454
##########                DOCK_Rotatable_Bonds:                   8
##########                       Formal_Charge:        -1.49012e-08
##########                     HBond_Acceptors:                   4
##########                        HBond_Donors:                   1
##########                         Heavy_Atoms:                  24
##########                          Grid_Score:          -28.064791
##########                     Grid_vdw_energy:          -27.248018
##########                      Grid_es_energy:           -0.816773
##########           Internal_energy_repulsive:           13.766411

@<TRIPOS>MOLECULE
ZINC000504638019
 52 53 1 0 0
SMALL
USER_CHARGES


@<TRIPOS>ATOM
      1 C1          0.5354    3.4984   50.7166 C.3     1  ZINC000504638019   -0.1200
      2 C2         -0.9635    3.3457   50.6862 C.ar    1  ZINC000504638019   -0.0900
      3 C3         -1.7346    3.8933   51.6944 C.ar    1  ZINC000504638019   -0.1200
      4 C4         -3.1095    3.7533   51.6665 C.ar    1  ZINC000504638019   -0.1100
      5 C5         -3.7134    3.0659   50.6303 C.ar    1  ZINC000504638019   -0.0900
      6 C6         -5.2123    2.9128   50.6002 C.3     1  ZINC000504638019   -0.0600
      7 H7         -5.6408    3.3548   51.4996 H       1  ZINC000504638019    0.0900
      8 C8         -5.7728    3.6228   49.3661 C.3     1  ZINC000504638019   -0.1500
      9 C9         -5.5721    1.4269   50.5409 C.3     1  ZINC000504638019    0.1300
     10 N10        -6.9605    1.2430   50.9705 N.am    1  ZINC000504638019   -0.7000
     11 C11        -7.3467    0.0749   51.5208 C.2     1  ZINC000504638019    0.5100
     12 O12        -6.5439   -0.8242   51.6616 O.2     1  ZINC000504638019   -0.5100
     13 C13        -8.7636   -0.1133   51.9574 C.2     1  ZINC000504638019    0.5100
     14 O14        -9.4375   -0.9954   51.4672 O.2     1  ZINC000504638019   -0.5200
     15 N15        -9.2929    0.6967   52.8955 N.am    1  ZINC000504638019   -0.5800
     16 C16        -8.4793    1.7616   53.4874 C.3     1  ZINC000504638019    0.0600
     17 C17       -10.6818    0.5122   53.3235 C.3     1  ZINC000504638019    0.1100
     18 C18       -11.6239    0.9460   52.1988 C.3     1  ZINC000504638019   -0.1000
     19 H19       -11.3359    0.4545   51.2696 H       1  ZINC000504638019    0.0800
     20 C20       -11.5494    2.4642   52.0222 C.3     1  ZINC000504638019   -0.0800
     21 C21       -12.6496    2.9339   51.1161 C.2     1  ZINC000504638019   -0.1500
     22 C22       -13.6995    2.2341   50.8272 C.2     1  ZINC000504638019   -0.1600
     23 C23       -13.9586    0.8515   51.3501 C.3     1  ZINC000504638019   -0.0900
     24 C24       -13.0657    0.5652   52.5582 C.3     1  ZINC000504638019   -0.1100
     25 C25        -2.9424    2.5194   49.6214 C.ar    1  ZINC000504638019   -0.1100
     26 C26        -1.5678    2.6628   49.6472 C.ar    1  ZINC000504638019   -0.1200
     27 H27         0.8182    4.4118   50.1935 H       1  ZINC000504638019    0.0700
     28 H28         0.8743    3.5524   51.7512 H       1  ZINC000504638019    0.0700
     29 H29         0.9980    2.6413   50.2271 H       1  ZINC000504638019    0.0700
     30 H30        -1.2628    4.4303   52.5039 H       1  ZINC000504638019    0.1200
     31 H31        -3.7119    4.1805   52.4546 H       1  ZINC000504638019    0.1200
     32 H32        -6.8569    3.5120   49.3444 H       1  ZINC000504638019    0.0600
     33 H33        -5.5166    4.6814   49.4084 H       1  ZINC000504638019    0.0600
     34 H34        -5.3443    3.1808   48.4667 H       1  ZINC000504638019    0.0600
     35 H35        -5.4571    1.0656   49.5190 H       1  ZINC000504638019    0.0800
     36 H36        -4.9102    0.8662   51.2011 H       1  ZINC000504638019    0.0800
     37 H37        -7.6019    1.9622   50.8591 H       1  ZINC000504638019    0.4100
     38 H38        -8.5048    2.6397   52.8420 H       1  ZINC000504638019    0.0600
     39 H39        -8.8773    2.0203   54.4686 H       1  ZINC000504638019    0.0700
     40 H40        -7.4504    1.4174   53.5918 H       1  ZINC000504638019    0.1100
     41 H41       -10.8537   -0.5386   53.5565 H       1  ZINC000504638019    0.0900
     42 H42       -10.8720    1.1167   54.2103 H       1  ZINC000504638019    0.0900
     43 H43       -11.6515    2.9465   52.9944 H       1  ZINC000504638019    0.0800
     44 H44       -10.5856    2.7306   51.5885 H       1  ZINC000504638019    0.0600
     45 H45       -12.5598    3.9169   50.6779 H       1  ZINC000504638019    0.1000
     46 H46       -14.4352    2.6727   50.1692 H       1  ZINC000504638019    0.1000
     47 H47       -15.0047    0.7668   51.6447 H       1  ZINC000504638019    0.0700
     48 H48       -13.7457    0.1235   50.5674 H       1  ZINC000504638019    0.0700
     49 H49       -13.1183   -0.4942   52.8097 H       1  ZINC000504638019    0.0700
     50 H50       -13.3954    1.1634   53.4076 H       1  ZINC000504638019    0.0700
     51 H51        -3.4142    1.9828   48.8115 H       1  ZINC000504638019    0.1200
     52 H52        -0.9654    2.2359   48.8590 H       1  ZINC000504638019    0.1200
@<TRIPOS>BOND
     1     1     2    1
     2     1    27    1
     3     1    28    1
     4     1    29    1
     5     2    26   ar
     6     2     3   ar
     7     3     4   ar
     8     3    30    1
     9     4     5   ar
    10     4    31    1
    11     5     6    1
    12     5    25   ar
    13     6     7    1
    14     6     8    1
    15     6     9    1
    16     8    32    1
    17     8    33    1
    18     8    34    1
    19     9    10    1
    20     9    35    1
    21     9    36    1
    22    10    11   am
    23    10    37    1
    24    11    12    2
    25    11    13    1
    26    13    14    2
    27    13    15   am
    28    15    16    1
    29    15    17    1
    30    16    38    1
    31    16    39    1
    32    16    40    1
    33    17    18    1
    34    17    41    1
    35    17    42    1
    36    18    19    1
    37    18    24    1
    38    18    20    1
    39    20    21    1
    40    20    43    1
    41    20    44    1
    42    21    22    2
    43    21    45    1
    44    22    23    1
    45    22    46    1
    46    23    24    1
    47    23    47    1
    48    23    48    1
    49    24    49    1
    50    24    50    1
    51    25    26   ar
    52    25    51    1
    53    26    52    1
@<TRIPOS>SUBSTRUCTURE
     1 ZINC000504638019        1 TEMP              0 ****  ****    0 ROOT


##########                                Name:    ZINC000506156755
##########                DOCK_Rotatable_Bonds:                   7
##########                         Heavy_Atoms:                  30
##########                    Molecular_Weight:             400.434
##########                DOCK_Rotatable_Bonds:                   7
##########                       Formal_Charge:          -0.0200001
##########                     HBond_Acceptors:                   6
##########                        HBond_Donors:                   1
##########                         Heavy_Atoms:                  30
##########                          Grid_Score:          -28.049290
##########                     Grid_vdw_energy:          -26.600193
##########                      Grid_es_energy:           -1.449097
##########           Internal_energy_repulsive:            9.576381

@<TRIPOS>MOLECULE
ZINC000506156755
 50 53 1 0 0
SMALL
USER_CHARGES


@<TRIPOS>ATOM
      1 C1        -13.7322    0.6918   55.4799 C.3     1  ZINC000506156755   -0.1600
      2 C2        -13.7473   -0.6908   54.8251 C.3     1  ZINC000506156755    0.1900
      3 H3        -14.7600   -0.9272   54.4985 H       1  ZINC000506156755    0.1000
      4 N4        -13.2996   -1.6948   55.7935 N.am    1  ZINC000506156755   -0.7200
      5 C5        -14.1600   -2.1748   56.7131 C.2     1  ZINC000506156755    0.5000
      6 O6        -15.3045   -1.7745   56.7399 O.2     1  ZINC000506156755   -0.5200
      7 C7        -13.7000   -3.2089   57.7081 C.3     1  ZINC000506156755    0.0900
      8 N8        -12.6760   -2.6268   58.5792 N.am    1  ZINC000506156755   -0.5600
      9 C9        -11.3614   -2.9007   58.4969 C.2     1  ZINC000506156755    0.5800
     10 O10       -10.8436   -3.6581   57.7011 O.2     1  ZINC000506156755   -0.4600
     11 C11       -10.6527   -2.1251   59.5366 C.ar    1  ZINC000506156755   -0.1400
     12 C12        -9.3267   -2.0055   59.9190 C.ar    1  ZINC000506156755   -0.0400
     13 C13        -8.9869   -1.1651   60.9682 C.ar    1  ZINC000506156755   -0.0900
     14 C14        -9.9615   -0.4468   61.6341 C.ar    1  ZINC000506156755   -0.0900
     15 C15       -11.2928   -0.5564   61.2624 C.ar    1  ZINC000506156755   -0.0400
     16 C16       -11.6471   -1.3922   60.2161 C.ar    1  ZINC000506156755   -0.1400
     17 C17       -12.9257   -1.7437   59.5627 C.2     1  ZINC000506156755    0.5800
     18 O18       -14.0189   -1.3093   59.8646 O.2     1  ZINC000506156755   -0.4600
     19 C19       -12.8225   -0.6931   53.6351 C.ar    1  ZINC000506156755   -0.1200
     20 C20       -11.4782   -0.9606   53.8051 C.ar    1  ZINC000506156755   -0.0800
     21 C21       -10.6290   -0.9633   52.7136 C.ar    1  ZINC000506156755   -0.1400
     22 C22       -11.1231   -0.6987   51.4498 C.ar    1  ZINC000506156755   -0.0800
     23 C23       -12.4669   -0.4306   51.2742 C.ar    1  ZINC000506156755   -0.1900
     24 C24       -13.3219   -0.4324   52.3669 C.ar    1  ZINC000506156755    0.1300
     25 O25       -14.6442   -0.1695   52.1969 O.3     1  ZINC000506156755   -0.2500
     26 C26       -14.9890    0.8942   51.4249 C.ar    1  ZINC000506156755    0.0800
     27 C27       -15.8716    0.7283   50.3671 C.ar    1  ZINC000506156755   -0.1400
     28 C28       -16.2205    1.8113   49.5838 C.ar    1  ZINC000506156755   -0.1000
     29 C29       -15.6909    3.0599   49.8529 C.ar    1  ZINC000506156755   -0.1200
     30 C30       -14.8111    3.2280   50.9063 C.ar    1  ZINC000506156755   -0.1000
     31 C31       -14.4634    2.1494   51.6963 C.ar    1  ZINC000506156755   -0.1200
     32 H32       -14.4012    0.6935   56.3406 H       1  ZINC000506156755    0.0700
     33 H33       -12.7195    0.9282   55.8064 H       1  ZINC000506156755    0.0600
     34 H34       -14.0654    1.4388   54.7594 H       1  ZINC000506156755    0.0700
     35 H35       -12.3839   -2.0141   55.7728 H       1  ZINC000506156755    0.4000
     36 H36       -14.5473   -3.5350   58.3112 H       1  ZINC000506156755    0.1300
     37 H37       -13.2818   -4.0637   57.1767 H       1  ZINC000506156755    0.1300
     38 H38        -8.5607   -2.5649   59.4023 H       1  ZINC000506156755    0.1400
     39 H39        -7.9533   -1.0716   61.2672 H       1  ZINC000506156755    0.1400
     40 H40        -9.6845    0.2043   62.4500 H       1  ZINC000506156755    0.1400
     41 H41       -12.0503    0.0078   61.7862 H       1  ZINC000506156755    0.1400
     42 H42       -11.0896   -1.1673   54.7914 H       1  ZINC000506156755    0.1300
     43 H43        -9.5781   -1.1722   52.8488 H       1  ZINC000506156755    0.1300
     44 H44       -10.4578   -0.7011   50.5990 H       1  ZINC000506156755    0.1300
     45 H45       -12.8523   -0.2236   50.2868 H       1  ZINC000506156755    0.1300
     46 H46       -16.2853   -0.2467   50.1563 H       1  ZINC000506156755    0.1300
     47 H47       -16.9072    1.6826   48.7602 H       1  ZINC000506156755    0.1300
     48 H48       -15.9646    3.9053   49.2391 H       1  ZINC000506156755    0.1300
     49 H49       -14.3988    4.2043   51.1145 H       1  ZINC000506156755    0.1300
     50 H50       -13.7765    2.2812   52.5191 H       1  ZINC000506156755    0.1300
@<TRIPOS>BOND
     1     1     2    1
     2     1    32    1
     3     1    33    1
     4     1    34    1
     5     2     3    1
     6     2     4    1
     7     2    19    1
     8     4     5   am
     9     4    35    1
    10     5     6    2
    11     5     7    1
    12     7     8    1
    13     7    36    1
    14     7    37    1
    15     8    17   am
    16     8     9   am
    17     9    10    2
    18     9    11    1
    19    11    16   ar
    20    11    12   ar
    21    12    13   ar
    22    12    38    1
    23    13    14   ar
    24    13    39    1
    25    14    15   ar
    26    14    40    1
    27    15    16   ar
    28    15    41    1
    29    16    17    1
    30    17    18    2
    31    19    24   ar
    32    19    20   ar
    33    20    21   ar
    34    20    42    1
    35    21    22   ar
    36    21    43    1
    37    22    23   ar
    38    22    44    1
    39    23    24   ar
    40    23    45    1
    41    24    25    1
    42    25    26    1
    43    26    31   ar
    44    26    27   ar
    45    27    28   ar
    46    27    46    1
    47    28    29   ar
    48    28    47    1
    49    29    30   ar
    50    29    48    1
    51    30    31   ar
    52    30    49    1
    53    31    50    1
@<TRIPOS>SUBSTRUCTURE
     1 ZINC000506156755        1 TEMP              0 ****  ****    0 ROOT


##########                                Name:    ZINC000163855860
##########                DOCK_Rotatable_Bonds:                   6
##########                         Heavy_Atoms:                  28
##########                    Molecular_Weight:             398.483
##########                DOCK_Rotatable_Bonds:                   6
##########                       Formal_Charge:          -0.0100004
##########                     HBond_Acceptors:                   7
##########                        HBond_Donors:                   1
##########                         Heavy_Atoms:                  28
##########                          Grid_Score:          -28.032076
##########                     Grid_vdw_energy:          -25.371984
##########                      Grid_es_energy:           -2.660091
##########           Internal_energy_repulsive:           33.309952

@<TRIPOS>MOLECULE
ZINC000163855860
 50 53 1 0 0
SMALL
USER_CHARGES


@<TRIPOS>ATOM
      1 C1        -12.7019    0.8086   58.1669 C.3     1  ZINC000163855860   -0.1300
      2 C2        -12.0519    0.6136   56.8214 C.ar    1  ZINC000163855860   -0.0600
      3 C3        -12.4282   -0.4489   56.0148 C.ar    1  ZINC000163855860    0.1400
      4 N4        -13.4138   -1.3425   56.4494 N.am    1  ZINC000163855860   -0.6700
      5 C5        -13.1189   -2.6487   56.6026 C.2     1  ZINC000163855860    0.5100
      6 O6        -11.9994   -3.0496   56.3640 O.2     1  ZINC000163855860   -0.5100
      7 C7        -14.1802   -3.6108   57.0705 C.3     1  ZINC000163855860   -0.1300
      8 C8        -14.6607   -3.2018   58.4644 C.3     1  ZINC000163855860   -0.1100
      9 H9        -15.0447   -4.0625   59.0119 H       1  ZINC000163855860    0.1100
     10 C10       -13.5288   -2.5067   59.2549 C.3     1  ZINC000163855860    0.0600
     11 O11       -14.2108   -1.4932   60.0514 O.3     1  ZINC000163855860   -0.3500
     12 C12       -15.3025   -1.0620   59.4037 C.2     1  ZINC000163855860    0.4800
     13 O13       -15.8641   -0.0125   59.6111 O.2     1  ZINC000163855860   -0.4500
     14 C14       -15.7262   -2.0868   58.3740 C.3     1  ZINC000163855860   -0.1800
     15 C15       -11.8309   -0.6236   54.7720 C.ar    1  ZINC000163855860   -0.1100
     16 C16       -10.8579    0.2567   54.3379 C.ar    1  ZINC000163855860   -0.1100
     17 C17       -10.4726    1.3152   55.1356 C.ar    1  ZINC000163855860   -0.1000
     18 C18       -11.0660    1.4990   56.3855 C.ar    1  ZINC000163855860   -0.1100
     19 C19       -10.6556    2.6323   57.2419 C.2     1  ZINC000163855860    0.5700
     20 O20       -11.2827    3.6732   57.2142 O.2     1  ZINC000163855860   -0.5300
     21 N21        -9.5863    2.5113   58.0532 N.am    1  ZINC000163855860   -0.6100
     22 C22        -9.1612    3.6262   58.9130 C.3     1  ZINC000163855860    0.1200
     23 C23        -9.3399    3.2008   60.3788 C.3     1  ZINC000163855860   -0.0600
     24 C24        -8.7856    1.8035   60.5589 C.2     1  ZINC000163855860   -0.1700
     25 C25        -8.5494    0.9298   59.5619 C.2     1  ZINC000163855860   -0.1300
     26 C26        -8.0485   -0.2939   59.9944 C.2     1  ZINC000163855860   -0.1200
     27 C27        -7.8760   -0.4135   61.3070 C.2     1  ZINC000163855860   -0.2100
     28 S28        -8.3595    1.0765   62.1030 S.3     1  ZINC000163855860    0.1100
     29 C29        -8.8106    1.2637   58.0976 C.3     1  ZINC000163855860    0.1700
     30 H30       -12.0867    0.3452   58.9382 H       1  ZINC000163855860    0.0700
     31 H31       -12.7998    1.8746   58.3720 H       1  ZINC000163855860    0.0900
     32 H32       -13.6894    0.3470   58.1637 H       1  ZINC000163855860    0.0700
     33 H33       -14.3091   -1.0217   56.6403 H       1  ZINC000163855860    0.4100
     34 H34       -13.7655   -4.6181   57.1103 H       1  ZINC000163855860    0.1100
     35 H35       -15.0203   -3.5909   56.3763 H       1  ZINC000163855860    0.1100
     36 H36       -12.8187   -2.0400   58.5721 H       1  ZINC000163855860    0.0800
     37 H37       -13.0218   -3.2220   59.9024 H       1  ZINC000163855860    0.1200
     38 H38       -16.7120   -2.4835   58.6169 H       1  ZINC000163855860    0.1200
     39 H39       -15.7292   -1.6447   57.3777 H       1  ZINC000163855860    0.1200
     40 H40       -12.1285   -1.4497   54.1432 H       1  ZINC000163855860    0.1500
     41 H41       -10.3976    0.1161   53.3711 H       1  ZINC000163855860    0.1300
     42 H42        -9.7118    2.0008   54.7928 H       1  ZINC000163855860    0.1300
     43 H43        -8.1133    3.8570   58.7217 H       1  ZINC000163855860    0.0800
     44 H44        -9.7755    4.5027   58.7062 H       1  ZINC000163855860    0.1000
     45 H45       -10.3991    3.2087   60.6361 H       1  ZINC000163855860    0.0900
     46 H46        -8.8021    3.8926   61.0271 H       1  ZINC000163855860    0.0900
     47 H47        -7.8150   -1.0947   59.3084 H       1  ZINC000163855860    0.1400
     48 H48        -7.4962   -1.2919   61.8077 H       1  ZINC000163855860    0.1700
     49 H49        -9.3789    0.4589   57.6311 H       1  ZINC000163855860    0.1000
     50 H50        -7.8641    1.3986   57.5742 H       1  ZINC000163855860    0.0900
@<TRIPOS>BOND
     1     1     2    1
     2     1    30    1
     3     1    31    1
     4     1    32    1
     5     2    18   ar
     6     2     3   ar
     7     3     4    1
     8     3    15   ar
     9     4     5   am
    10     4    33    1
    11     5     6    2
    12     5     7    1
    13     7     8    1
    14     7    34    1
    15     7    35    1
    16     8     9    1
    17     8    14    1
    18     8    10    1
    19    10    11    1
    20    10    36    1
    21    10    37    1
    22    11    12    1
    23    12    13    2
    24    12    14    1
    25    14    38    1
    26    14    39    1
    27    15    16   ar
    28    15    40    1
    29    16    17   ar
    30    16    41    1
    31    17    18   ar
    32    17    42    1
    33    18    19    1
    34    19    20    2
    35    19    21   am
    36    21    29    1
    37    21    22    1
    38    22    23    1
    39    22    43    1
    40    22    44    1
    41    23    24    1
    42    23    45    1
    43    23    46    1
    44    24    28    1
    45    24    25    2
    46    25    26    1
    47    25    29    1
    48    26    27    2
    49    26    47    1
    50    27    28    1
    51    27    48    1
    52    29    49    1
    53    29    50    1
@<TRIPOS>SUBSTRUCTURE
     1 ZINC000163855860        1 TEMP              0 ****  ****    0 ROOT


##########                                Name:    ZINC000469435497
##########                DOCK_Rotatable_Bonds:                   6
##########                         Heavy_Atoms:                  27
##########                    Molecular_Weight:             364.444
##########                DOCK_Rotatable_Bonds:                   6
##########                       Formal_Charge:           0.0300001
##########                     HBond_Acceptors:                   5
##########                        HBond_Donors:                   2
##########                         Heavy_Atoms:                  27
##########                          Grid_Score:          -28.005739
##########                     Grid_vdw_energy:          -25.683054
##########                      Grid_es_energy:           -2.322685
##########           Internal_energy_repulsive:            3.412212

@<TRIPOS>MOLECULE
ZINC000469435497
 51 54 1 0 0
SMALL
USER_CHARGES


@<TRIPOS>ATOM
      1 C1          0.7712    0.8382   47.6438 C.3     1  ZINC000469435497   -0.1600
      2 C2         -0.2480    1.8452   47.1071 C.3     1  ZINC000469435497    0.1000
      3 C3         -0.0520    2.0637   45.6056 C.3     1  ZINC000469435497   -0.1400
      4 C4         -1.6913    1.3803   47.4136 C.3     1  ZINC000469435497   -0.1000
      5 C5         -1.9723    2.0773   48.7308 C.ar    1  ZINC000469435497   -0.1500
      6 C6         -2.9460    1.8886   49.6854 C.ar    1  ZINC000469435497   -0.0700
      7 C7         -2.9629    2.6837   50.8250 C.ar    1  ZINC000469435497    0.1100
      8 N8         -3.9512    2.4963   51.8004 N.am    1  ZINC000469435497   -0.6600
      9 C9         -5.2124    2.9121   51.5703 C.2     1  ZINC000469435497    0.5100
     10 O10        -5.4918    3.4487   50.5191 O.2     1  ZINC000469435497   -0.5200
     11 C11        -6.2754    2.7106   52.6193 C.3     1  ZINC000469435497    0.1000
     12 N12        -7.5978    2.7664   51.9915 N.am    1  ZINC000469435497   -0.7200
     13 C13        -8.6435    2.1395   52.5660 C.2     1  ZINC000469435497    0.5700
     14 O14        -8.4890    1.5266   53.6043 O.2     1  ZINC000469435497   -0.5300
     15 C15        -9.9785    2.1972   51.9333 C.ar    1  ZINC000469435497   -0.1400
     16 C16       -10.3523    3.3138   51.1843 C.ar    1  ZINC000469435497   -0.0800
     17 C17       -11.5991    3.3589   50.5980 C.ar    1  ZINC000469435497   -0.1100
     18 C18       -12.4837    2.3023   50.7480 C.ar    1  ZINC000469435497   -0.0700
     19 C19       -13.8874    2.1184   50.2108 C.3     1  ZINC000469435497   -0.0900
     20 C20       -14.1721    0.6065   50.3328 C.3     1  ZINC000469435497   -0.1200
     21 C21       -13.2527    0.1888   51.4999 C.3     1  ZINC000469435497   -0.0800
     22 C22       -12.1188    1.1920   51.4898 C.ar    1  ZINC000469435497   -0.1100
     23 C23       -10.8693    1.1337   52.0770 C.ar    1  ZINC000469435497   -0.0400
     24 C24        -1.9948    3.6647   50.9915 C.ar    1  ZINC000469435497   -0.1000
     25 C25        -1.0234    3.8531   50.0310 C.ar    1  ZINC000469435497   -0.1200
     26 C26        -1.0038    3.0612   48.8858 C.ar    1  ZINC000469435497    0.1000
     27 O27        -0.1567    3.0909   47.8192 O.3     1  ZINC000469435497   -0.3000
     28 H28         0.5945    0.6737   48.7068 H       1  ZINC000469435497    0.0600
     29 H29         0.6667   -0.1052   47.1080 H       1  ZINC000469435497    0.0800
     30 H30         1.7786    1.2286   47.4991 H       1  ZINC000469435497    0.0700
     31 H31        -0.1938    1.1196   45.0795 H       1  ZINC000469435497    0.0800
     32 H32        -0.7786    2.7924   45.2465 H       1  ZINC000469435497    0.0700
     33 H33         0.9562    2.4345   45.4209 H       1  ZINC000469435497    0.0700
     34 H34        -2.3814    1.7168   46.6398 H       1  ZINC000469435497    0.0900
     35 H35        -1.7354    0.2973   47.5287 H       1  ZINC000469435497    0.0900
     36 H36        -3.6962    1.1239   49.5486 H       1  ZINC000469435497    0.1400
     37 H37        -3.7278    2.0671   52.6410 H       1  ZINC000469435497    0.4200
     38 H38        -6.1387    1.7385   53.0929 H       1  ZINC000469435497    0.1100
     39 H39        -6.1969    3.4955   53.3716 H       1  ZINC000469435497    0.1100
     40 H40        -7.7209    3.2545   51.1623 H       1  ZINC000469435497    0.4100
     41 H41        -9.6671    4.1400   51.0645 H       1  ZINC000469435497    0.1300
     42 H42       -11.8886    4.2232   50.0186 H       1  ZINC000469435497    0.1300
     43 H43       -14.5991    2.6868   50.8096 H       1  ZINC000469435497    0.0900
     44 H44       -13.9368    2.4294   49.1672 H       1  ZINC000469435497    0.0800
     45 H45       -15.2184    0.4281   50.5809 H       1  ZINC000469435497    0.0800
     46 H46       -13.8959    0.0851   49.4163 H       1  ZINC000469435497    0.0700
     47 H47       -13.7940    0.2394   52.4446 H       1  ZINC000469435497    0.0800
     48 H48       -12.8683   -0.8180   51.3368 H       1  ZINC000469435497    0.0800
     49 H49       -10.5833    0.2646   52.6510 H       1  ZINC000469435497    0.1400
     50 H50        -2.0026    4.2830   51.8770 H       1  ZINC000469435497    0.1400
     51 H51        -0.2738    4.6186   50.1677 H       1  ZINC000469435497    0.1300
@<TRIPOS>BOND
     1     1     2    1
     2     1    28    1
     3     1    29    1
     4     1    30    1
     5     2    27    1
     6     2     3    1
     7     2     4    1
     8     3    31    1
     9     3    32    1
    10     3    33    1
    11     4     5    1
    12     4    34    1
    13     4    35    1
    14     5    26   ar
    15     5     6   ar
    16     6     7   ar
    17     6    36    1
    18     7     8    1
    19     7    24   ar
    20     8     9   am
    21     8    37    1
    22     9    10    2
    23     9    11    1
    24    11    12    1
    25    11    38    1
    26    11    39    1
    27    12    13   am
    28    12    40    1
    29    13    14    2
    30    13    15    1
    31    15    23   ar
    32    15    16   ar
    33    16    17   ar
    34    16    41    1
    35    17    18   ar
    36    17    42    1
    37    18    22   ar
    38    18    19    1
    39    19    20    1
    40    19    43    1
    41    19    44    1
    42    20    21    1
    43    20    45    1
    44    20    46    1
    45    21    22    1
    46    21    47    1
    47    21    48    1
    48    22    23   ar
    49    23    49    1
    50    24    25   ar
    51    24    50    1
    52    25    26   ar
    53    25    51    1
    54    26    27    1
@<TRIPOS>SUBSTRUCTURE
     1 ZINC000469435497        1 TEMP              0 ****  ****    0 ROOT


##########                                Name:    ZINC001248546333
##########                DOCK_Rotatable_Bonds:                   6
##########                         Heavy_Atoms:                  27
##########                    Molecular_Weight:             378.397
##########                DOCK_Rotatable_Bonds:                   6
##########                       Formal_Charge:         3.94881e-07
##########                     HBond_Acceptors:                   8
##########                        HBond_Donors:                   1
##########                         Heavy_Atoms:                  27
##########                          Grid_Score:          -27.990725
##########                     Grid_vdw_energy:          -27.424879
##########                      Grid_es_energy:           -0.565846
##########           Internal_energy_repulsive:           12.352411

@<TRIPOS>MOLECULE
ZINC001248546333
 48 50 1 0 0
SMALL
USER_CHARGES


@<TRIPOS>ATOM
      1 C1         -8.3681    2.7746   57.8366 C.3     1  ZINC001248546333   -0.1200
      2 C2         -8.6345    2.4413   56.3912 C.ar    1  ZINC001248546333   -0.0800
      3 C3         -9.8044    1.7942   56.0365 C.ar    1  ZINC001248546333   -0.1200
      4 C4        -10.0565    1.4847   54.7117 C.ar    1  ZINC001248546333   -0.1100
      5 C5         -9.1413    1.8206   53.7356 C.ar    1  ZINC001248546333   -0.1100
      6 C6         -7.9593    2.4740   54.0868 C.ar    1  ZINC001248546333   -0.0600
      7 C7         -6.9744    2.8370   53.0460 C.2     1  ZINC001248546333   -0.0600
      8 C8         -5.7117    2.8982   53.3936 C.2     1  ZINC001248546333   -0.1700
      9 C9         -4.6081    3.2711   52.4432 C.3     1  ZINC001248546333    0.1500
     10 N10        -5.1360    3.2817   51.0713 N.am    1  ZINC001248546333   -0.6300
     11 C11        -4.4418    2.7437   50.0490 C.2     1  ZINC001248546333    0.7200
     12 O12        -4.9017    2.7657   48.9238 O.2     1  ZINC001248546333   -0.5800
     13 N13        -3.2379    2.1811   50.2741 N.am    1  ZINC001248546333   -0.7500
     14 C14        -2.4834    1.5963   49.1629 C.3     1  ZINC001248546333    0.2000
     15 C15        -1.0547    1.3740   49.5877 C.2     1  ZINC001248546333    0.0700
     16 C16        -0.2454    2.2864   50.1738 C.2     1  ZINC001248546333   -0.2000
     17 C17         0.9929    1.6782   50.4044 C.2     1  ZINC001248546333   -0.0200
     18 C18         2.1928    2.3306   51.0413 C.3     1  ZINC001248546333    0.5600
     19 F19         3.2765    2.2766   50.1583 F       1  ZINC001248546333   -0.1700
     20 F20         1.8965    3.6659   51.3350 F       1  ZINC001248546333   -0.1700
     21 F21         2.5192    1.6549   52.2220 F       1  ZINC001248546333   -0.1600
     22 N22         0.9292    0.4449   49.9725 N.2     1  ZINC001248546333   -0.2200
     23 N23        -0.3552    0.2273   49.4573 N.pl3   1  ZINC001248546333   -0.3400
     24 C24        -0.8489   -1.0217   48.8720 C.3     1  ZINC001248546333    0.0900
     25 C25        -6.4540    3.9044   50.8587 C.3     1  ZINC001248546333    0.1300
     26 C26        -7.4858    3.1047   51.6617 C.3     1  ZINC001248546333   -0.1000
     27 C27        -7.7134    2.7876   55.4238 C.ar    1  ZINC001248546333   -0.1100
     28 H28        -8.7731    3.7611   58.0626 H       1  ZINC001248546333    0.0700
     29 H29        -8.8453    2.0310   58.4748 H       1  ZINC001248546333    0.0700
     30 H30        -7.2932    2.7729   58.0177 H       1  ZINC001248546333    0.0700
     31 H31       -10.5240    1.5290   56.7969 H       1  ZINC001248546333    0.1200
     32 H32       -10.9714    0.9786   54.4413 H       1  ZINC001248546333    0.1200
     33 H33        -9.3391    1.5781   52.7019 H       1  ZINC001248546333    0.1200
     34 H34        -5.4507    2.6690   54.4163 H       1  ZINC001248546333    0.1200
     35 H35        -4.2294    4.2616   52.6954 H       1  ZINC001248546333    0.0800
     36 H36        -3.8014    2.5418   52.5175 H       1  ZINC001248546333    0.0800
     37 H37        -2.8710    2.1636   51.1719 H       1  ZINC001248546333    0.4000
     38 H38        -2.9313    0.6432   48.8815 H       1  ZINC001248546333    0.1000
     39 H39        -2.5076    2.2748   48.3103 H       1  ZINC001248546333    0.0900
     40 H40        -0.5089    3.3045   50.4195 H       1  ZINC001248546333    0.1700
     41 H41        -1.2904   -1.6397   49.6537 H       1  ZINC001248546333    0.0900
     42 H42        -1.6027   -0.7963   48.1176 H       1  ZINC001248546333    0.1000
     43 H43        -0.0207   -1.5581   48.4089 H       1  ZINC001248546333    0.1000
     44 H44        -6.4334    4.9379   51.2042 H       1  ZINC001248546333    0.0700
     45 H45        -6.7094    3.8741   49.7995 H       1  ZINC001248546333    0.1000
     46 H46        -7.6833    2.1600   51.1551 H       1  ZINC001248546333    0.0800
     47 H47        -8.4120    3.6755   51.7281 H       1  ZINC001248546333    0.0900
     48 H48        -6.8004    3.2932   55.7020 H       1  ZINC001248546333    0.1200
@<TRIPOS>BOND
     1     1     2    1
     2     1    28    1
     3     1    29    1
     4     1    30    1
     5     2    27   ar
     6     2     3   ar
     7     3     4   ar
     8     3    31    1
     9     4     5   ar
    10     4    32    1
    11     5     6   ar
    12     5    33    1
    13     6     7    1
    14     6    27   ar
    15     7    26    1
    16     7     8    2
    17     8     9    1
    18     8    34    1
    19     9    10    1
    20     9    35    1
    21     9    36    1
    22    10    11   am
    23    10    25    1
    24    11    12    2
    25    11    13   am
    26    13    14    1
    27    13    37    1
    28    14    15    1
    29    14    38    1
    30    14    39    1
    31    15    23    1
    32    15    16    2
    33    16    17    1
    34    16    40    1
    35    17    18    1
    36    17    22    2
    37    18    19    1
    38    18    20    1
    39    18    21    1
    40    22    23    1
    41    23    24    1
    42    24    41    1
    43    24    42    1
    44    24    43    1
    45    25    26    1
    46    25    44    1
    47    25    45    1
    48    26    46    1
    49    26    47    1
    50    27    48    1
@<TRIPOS>SUBSTRUCTURE
     1 ZINC001248546333        1 TEMP              0 ****  ****    0 ROOT


##########                                Name:    ZINC000498646479
##########                DOCK_Rotatable_Bonds:                   7
##########                         Heavy_Atoms:                  29
##########                    Molecular_Weight:              407.58
##########                DOCK_Rotatable_Bonds:                   7
##########                       Formal_Charge:          -0.0199997
##########                     HBond_Acceptors:                   5
##########                        HBond_Donors:                   0
##########                         Heavy_Atoms:                  29
##########                          Grid_Score:          -27.976997
##########                     Grid_vdw_energy:          -25.657579
##########                      Grid_es_energy:           -2.319418
##########           Internal_energy_repulsive:           37.281921

@<TRIPOS>MOLECULE
ZINC000498646479
 58 61 1 0 0
SMALL
USER_CHARGES


@<TRIPOS>ATOM
      1 C1         -6.5213    2.4923   53.5579 C.3     1  ZINC000498646479   -0.1500
      2 C2         -7.9190    2.8716   53.0642 C.3     1  ZINC000498646479   -0.0600
      3 C3         -8.8711    1.7338   53.3292 C.2     1  ZINC000498646479   -0.1700
      4 C4         -9.1256    0.7321   52.4861 C.2     1  ZINC000498646479   -0.1400
      5 C5        -10.0382   -0.2010   52.9475 C.2     1  ZINC000498646479   -0.1300
      6 C6        -10.5246    0.0432   54.1654 C.2     1  ZINC000498646479   -0.1900
      7 C7        -11.5272   -0.8182   54.8890 C.3     1  ZINC000498646479    0.1300
      8 N8        -12.1952   -0.0239   55.9287 N.3     1  ZINC000498646479   -0.5300
      9 C9        -11.5279   -0.1883   57.2270 C.3     1  ZINC000498646479    0.0400
     10 C10       -12.1371    0.7888   58.2381 C.3     1  ZINC000498646479    0.1200
     11 N11       -13.5946    0.5915   58.2586 N.am    1  ZINC000498646479   -0.6100
     12 C12       -14.2508    0.4030   59.4206 C.2     1  ZINC000498646479    0.5200
     13 O13       -15.4529    0.2419   59.4189 O.2     1  ZINC000498646479   -0.5400
     14 C14       -13.4910    0.3925   60.7219 C.3     1  ZINC000498646479   -0.1000
     15 H15       -12.5928    1.0020   60.6232 H       1  ZINC000498646479    0.0900
     16 C16       -14.3747    0.9627   61.8332 C.3     1  ZINC000498646479   -0.1500
     17 C17       -13.0967   -1.0442   61.0706 C.3     1  ZINC000498646479   -0.0600
     18 C18       -11.6470   -1.2654   60.7235 C.ar    1  ZINC000498646479   -0.1200
     19 C19       -10.6296   -0.6105   61.4406 C.ar    1  ZINC000498646479   -0.0200
     20 C20       -10.9064    0.2675   62.4985 C.ar    1  ZINC000498646479   -0.1200
     21 C21        -9.8772    0.8716   63.1551 C.ar    1  ZINC000498646479   -0.1000
     22 C22        -8.5533    0.6311   62.7916 C.ar    1  ZINC000498646479   -0.1200
     23 C23        -8.2475   -0.2152   61.7696 C.ar    1  ZINC000498646479   -0.0900
     24 C24        -9.2817   -0.8567   61.0697 C.ar    1  ZINC000498646479   -0.1100
     25 C25        -9.0278   -1.7396   60.0081 C.ar    1  ZINC000498646479    0.1400
     26 N26       -10.0281   -2.3163   59.3837 N.ar    1  ZINC000498646479   -0.4800
     27 C27       -11.2954   -2.1081   59.7128 C.ar    1  ZINC000498646479    0.0800
     28 C28       -14.3168    0.6057   56.9774 C.3     1  ZINC000498646479    0.1100
     29 C29       -13.6216   -0.3641   56.0159 C.3     1  ZINC000498646479    0.0400
     30 S30        -9.8107    1.5199   54.8005 S.3     1  ZINC000498646479    0.1300
     31 H31        -5.8326    3.3152   53.3663 H       1  ZINC000498646479    0.0600
     32 H32        -6.5566    2.2899   54.6284 H       1  ZINC000498646479    0.0600
     33 H33        -6.1789    1.6018   53.0308 H       1  ZINC000498646479    0.0600
     34 H34        -8.2613    3.7621   53.5913 H       1  ZINC000498646479    0.0800
     35 H35        -7.8836    3.0740   51.9938 H       1  ZINC000498646479    0.0700
     36 H36        -8.6558    0.6549   51.5168 H       1  ZINC000498646479    0.1400
     37 H37       -10.3342   -1.0612   52.3654 H       1  ZINC000498646479    0.1300
     38 H38       -12.2689   -1.1861   54.1801 H       1  ZINC000498646479    0.0900
     39 H39       -11.0150   -1.6628   55.3501 H       1  ZINC000498646479    0.0500
     40 H40       -11.6659   -1.2102   57.5801 H       1  ZINC000498646479    0.0400
     41 H41       -10.4633    0.0185   57.1175 H       1  ZINC000498646479    0.1000
     42 H42       -11.7272    0.5933   59.2289 H       1  ZINC000498646479    0.1000
     43 H43       -11.9104    1.8125   57.9404 H       1  ZINC000498646479    0.0800
     44 H44       -13.7983    1.0333   62.7556 H       1  ZINC000498646479    0.0700
     45 H45       -14.7243    1.9545   61.5463 H       1  ZINC000498646479    0.0600
     46 H46       -15.2310    0.3067   61.9891 H       1  ZINC000498646479    0.0700
     47 H47       -13.2447   -1.2129   62.1372 H       1  ZINC000498646479    0.0900
     48 H48       -13.7162   -1.7388   60.5033 H       1  ZINC000498646479    0.0800
     49 H49       -11.9277    0.4634   62.7901 H       1  ZINC000498646479    0.1400
     50 H50       -10.0902    1.5477   63.9699 H       1  ZINC000498646479    0.1300
     51 H51        -7.7570    1.1243   63.3290 H       1  ZINC000498646479    0.1300
     52 H52        -7.2169   -0.3916   61.4994 H       1  ZINC000498646479    0.1300
     53 H53        -8.0113   -1.9437   59.7055 H       1  ZINC000498646479    0.1600
     54 H54       -12.0714   -2.6147   59.1582 H       1  ZINC000498646479    0.1500
     55 H55       -15.3478    0.2892   57.1348 H       1  ZINC000498646479    0.0900
     56 H56       -14.2996    1.6119   56.5586 H       1  ZINC000498646479    0.0800
     57 H57       -14.0755   -0.2848   55.0281 H       1  ZINC000498646479    0.0900
     58 H58       -13.7305   -1.3835   56.3859 H       1  ZINC000498646479    0.0400
@<TRIPOS>BOND
     1     1     2    1
     2     1    31    1
     3     1    32    1
     4     1    33    1
     5     2     3    1
     6     2    34    1
     7     2    35    1
     8     3    30    1
     9     3     4    2
    10     4     5    1
    11     4    36    1
    12     5     6    2
    13     5    37    1
    14     6     7    1
    15     6    30    1
    16     7     8    1
    17     7    38    1
    18     7    39    1
    19     8    29    1
    20     8     9    1
    21     9    10    1
    22     9    40    1
    23     9    41    1
    24    10    11    1
    25    10    42    1
    26    10    43    1
    27    11    12   am
    28    11    28    1
    29    12    13    2
    30    12    14    1
    31    14    15    1
    32    14    16    1
    33    14    17    1
    34    16    44    1
    35    16    45    1
    36    16    46    1
    37    17    18    1
    38    17    47    1
    39    17    48    1
    40    18    27   ar
    41    18    19   ar
    42    19    24   ar
    43    19    20   ar
    44    20    21   ar
    45    20    49    1
    46    21    22   ar
    47    21    50    1
    48    22    23   ar
    49    22    51    1
    50    23    24   ar
    51    23    52    1
    52    24    25   ar
    53    25    26   ar
    54    25    53    1
    55    26    27   ar
    56    27    54    1
    57    28    29    1
    58    28    55    1
    59    28    56    1
    60    29    57    1
    61    29    58    1
@<TRIPOS>SUBSTRUCTURE
     1 ZINC000498646479        1 TEMP              0 ****  ****    0 ROOT


##########                                Name:    ZINC000437443367
##########                DOCK_Rotatable_Bonds:                   8
##########                         Heavy_Atoms:                  24
##########                    Molecular_Weight:             334.434
##########                DOCK_Rotatable_Bonds:                   8
##########                       Formal_Charge:          -0.0500003
##########                     HBond_Acceptors:                   5
##########                        HBond_Donors:                   1
##########                         Heavy_Atoms:                  24
##########                          Grid_Score:          -27.969477
##########                     Grid_vdw_energy:          -26.962915
##########                      Grid_es_energy:           -1.006561
##########           Internal_energy_repulsive:           24.642311

@<TRIPOS>MOLECULE
ZINC000437443367
 51 52 1 0 0
SMALL
USER_CHARGES


@<TRIPOS>ATOM
      1 C1         -8.4722    3.0137   53.5058 C.3     1  ZINC000437443367   -0.1200
      2 C2         -7.5153    2.1582   52.7162 C.ar    1  ZINC000437443367   -0.1000
      3 C3         -6.1944    2.5387   52.5881 C.ar    1  ZINC000437443367   -0.1200
      4 C4         -5.3127    1.7495   51.8600 C.ar    1  ZINC000437443367    0.1400
      5 N5         -3.9744    2.1325   51.7293 N.am    1  ZINC000437443367   -0.6400
      6 C6         -3.5261    2.6260   50.5580 C.2     1  ZINC000437443367    0.5000
      7 O7         -4.2840    2.7379   49.6166 O.2     1  ZINC000437443367   -0.4800
      8 C8         -2.0965    3.0352   50.4184 C.2     1  ZINC000437443367    0.5100
      9 O9         -1.6773    3.9945   51.0321 O.2     1  ZINC000437443367   -0.5200
     10 N10        -1.2721    2.3389   49.6109 N.am    1  ZINC000437443367   -0.5700
     11 C11         0.1302    2.7401   49.4739 C.3     1  ZINC000437443367    0.0900
     12 C12         0.2217    3.9762   48.5768 C.3     1  ZINC000437443367   -0.1200
     13 C13         1.6589    4.5007   48.5762 C.3     1  ZINC000437443367   -0.0900
     14 C14         2.5978    3.4151   48.0460 C.3     1  ZINC000437443367   -0.1400
     15 C15         1.7503    5.7367   47.6791 C.3     1  ZINC000437443367   -0.1500
     16 C16        -1.7783    1.1808   48.8703 C.3     1  ZINC000437443367    0.1300
     17 C17        -1.7546    1.4710   47.3552 C.3     1  ZINC000437443367   -0.1300
     18 C18        -0.4182    0.8552   46.8715 C.3     1  ZINC000437443367   -0.1300
     19 C19        -0.3127   -0.4389   47.7161 C.3     1  ZINC000437443367   -0.1200
     20 C20        -0.8615   -0.0335   49.0996 C.3     1  ZINC000437443367   -0.1400
     21 C21        -5.7626    0.5791   51.2626 C.ar    1  ZINC000437443367   -0.1100
     22 C22        -7.0849    0.2024   51.3934 C.ar    1  ZINC000437443367   -0.1300
     23 C23        -7.9605    0.9876   52.1243 C.ar    1  ZINC000437443367    0.0800
     24 F24        -9.2536    0.6173   52.2510 F       1  ZINC000437443367   -0.1400
     25 H25        -8.4654    2.6984   54.5492 H       1  ZINC000437443367    0.0800
     26 H26        -8.1654    4.0576   53.4398 H       1  ZINC000437443367    0.0700
     27 H27        -9.4776    2.9041   53.0997 H       1  ZINC000437443367    0.0700
     28 H28        -5.8467    3.4493   53.0532 H       1  ZINC000437443367    0.1400
     29 H29        -3.3688    2.0432   52.4816 H       1  ZINC000437443367    0.4200
     30 H30         0.5390    2.9736   50.4570 H       1  ZINC000437443367    0.0900
     31 H31         0.6996    1.9246   49.0279 H       1  ZINC000437443367    0.1000
     32 H32        -0.0683    3.7097   47.5605 H       1  ZINC000437443367    0.0700
     33 H33        -0.4472    4.7495   48.9546 H       1  ZINC000437443367    0.0600
     34 H34         1.9489    4.7671   49.5926 H       1  ZINC000437443367    0.0600
     35 H35         2.3078    3.1488   47.0297 H       1  ZINC000437443367    0.0600
     36 H36         3.6217    3.7888   48.0456 H       1  ZINC000437443367    0.0400
     37 H37         2.5326    2.5346   48.6852 H       1  ZINC000437443367    0.0600
     38 H38         1.0816    6.5101   48.0568 H       1  ZINC000437443367    0.0500
     39 H39         2.7743    6.1104   47.6787 H       1  ZINC000437443367    0.0500
     40 H40         1.4604    5.4703   46.6628 H       1  ZINC000437443367    0.0500
     41 H41        -2.7939    0.9478   49.1905 H       1  ZINC000437443367    0.1000
     42 H42        -2.5978    0.9885   46.8611 H       1  ZINC000437443367    0.0800
     43 H43        -1.7677    2.5454   47.1724 H       1  ZINC000437443367    0.0700
     44 H44        -0.4638    0.6197   45.8082 H       1  ZINC000437443367    0.0700
     45 H45         0.4152    1.5246   47.0846 H       1  ZINC000437443367    0.0700
     46 H46        -0.9231   -1.2298   47.2803 H       1  ZINC000437443367    0.0700
     47 H47         0.7264   -0.7583   47.7966 H       1  ZINC000437443367    0.0700
     48 H48        -0.0399    0.2387   49.7621 H       1  ZINC000437443367    0.0800
     49 H49        -1.4323   -0.8562   49.5306 H       1  ZINC000437443367    0.0700
     50 H50        -5.0791   -0.0357   50.6959 H       1  ZINC000437443367    0.1600
     51 H51        -7.4353   -0.7076   50.9291 H       1  ZINC000437443367    0.1400
@<TRIPOS>BOND
     1     1     2    1
     2     1    25    1
     3     1    26    1
     4     1    27    1
     5     2    23   ar
     6     2     3   ar
     7     3     4   ar
     8     3    28    1
     9     4     5    1
    10     4    21   ar
    11     5     6   am
    12     5    29    1
    13     6     7    2
    14     6     8    1
    15     8     9    2
    16     8    10   am
    17    10    11    1
    18    10    16    1
    19    11    12    1
    20    11    30    1
    21    11    31    1
    22    12    13    1
    23    12    32    1
    24    12    33    1
    25    13    14    1
    26    13    15    1
    27    13    34    1
    28    14    35    1
    29    14    36    1
    30    14    37    1
    31    15    38    1
    32    15    39    1
    33    15    40    1
    34    16    20    1
    35    16    17    1
    36    16    41    1
    37    17    18    1
    38    17    42    1
    39    17    43    1
    40    18    19    1
    41    18    44    1
    42    18    45    1
    43    19    20    1
    44    19    46    1
    45    19    47    1
    46    20    48    1
    47    20    49    1
    48    21    22   ar
    49    21    50    1
    50    22    23   ar
    51    22    51    1
    52    23    24    1
@<TRIPOS>SUBSTRUCTURE
     1 ZINC000437443367        1 TEMP              0 ****  ****    0 ROOT


##########                                Name:    ZINC001291841503
##########                DOCK_Rotatable_Bonds:                   7
##########                         Heavy_Atoms:                  28
##########                    Molecular_Weight:             397.544
##########                DOCK_Rotatable_Bonds:                   7
##########                       Formal_Charge:         -0.00999964
##########                     HBond_Acceptors:                   7
##########                        HBond_Donors:                   0
##########                         Heavy_Atoms:                  28
##########                          Grid_Score:          -27.960207
##########                     Grid_vdw_energy:          -27.292057
##########                      Grid_es_energy:           -0.668149
##########           Internal_energy_repulsive:           19.879444

@<TRIPOS>MOLECULE
ZINC001291841503
 55 58 1 0 0
SMALL
USER_CHARGES


@<TRIPOS>ATOM
      1 C1        -11.0765   -0.3354   51.7275 C.3     1  ZINC001291841503   -0.1500
      2 C2        -10.3234   -0.6131   53.0301 C.3     1  ZINC001291841503   -0.1100
      3 C3        -10.9790    0.1634   54.1738 C.3     1  ZINC001291841503    0.0500
      4 H4        -11.8193    0.7399   53.7868 H       1  ZINC001291841503    0.0900
      5 C5        -11.4723   -0.8033   55.2193 C.2     1  ZINC001291841503    0.2000
      6 N6        -10.8951   -1.9156   55.5762 N.2     1  ZINC001291841503   -0.2700
      7 N7        -11.5840   -2.4950   56.4936 N.2     1  ZINC001291841503   -0.3100
      8 C8        -12.6464   -1.7775   56.7736 C.2     1  ZINC001291841503    0.3600
      9 N9        -13.6226   -2.0814   57.7092 N.3     1  ZINC001291841503   -0.4500
     10 C10       -14.4121   -3.2460   57.2870 C.3     1  ZINC001291841503    0.0200
     11 C11       -13.0306   -2.2995   59.0358 C.3     1  ZINC001291841503    0.0700
     12 H12       -12.4397   -3.2153   59.0492 H       1  ZINC001291841503    0.0800
     13 C13       -12.1695   -1.0800   59.4640 C.3     1  ZINC001291841503   -0.1400
     14 C14       -12.2771   -1.1713   61.0071 C.3     1  ZINC001291841503    0.0500
     15 O15       -13.6176   -1.6190   61.2638 O.3     1  ZINC001291841503   -0.3800
     16 C16       -14.1231   -2.3344   60.1260 C.3     1  ZINC001291841503    0.0600
     17 N17       -12.6054   -0.6729   55.9736 N.pl3   1  ZINC001291841503   -0.4700
     18 C18       -13.5786    0.4211   55.9257 C.3     1  ZINC001291841503    0.1900
     19 C19       -14.6143    0.1265   54.8714 C.2     1  ZINC001291841503   -0.2700
     20 C20       -15.7887   -0.4793   55.0706 C.2     1  ZINC001291841503    0.0800
     21 N21       -16.5214   -0.6216   53.9845 N.2     1  ZINC001291841503   -0.4800
     22 C22       -16.0304   -0.1695   52.8803 C.2     1  ZINC001291841503    0.0500
     23 C23       -16.7150   -0.2390   51.5396 C.3     1  ZINC001291841503   -0.0800
     24 S24       -14.4940    0.5265   53.1596 S.3     1  ZINC001291841503    0.1800
     25 C25        -9.9700    1.0979   54.7898 C.ar    1  ZINC001291841503   -0.0900
     26 C26        -9.7019    1.0302   56.1442 C.ar    1  ZINC001291841503   -0.0900
     27 C27        -8.7763    1.8874   56.7093 C.ar    1  ZINC001291841503   -0.1200
     28 C28        -8.1184    2.8119   55.9199 C.ar    1  ZINC001291841503   -0.1200
     29 C29        -8.3858    2.8791   54.5653 C.ar    1  ZINC001291841503   -0.1200
     30 C30        -9.3083    2.0189   53.9994 C.ar    1  ZINC001291841503   -0.1100
     31 H31       -12.1143   -0.6515   51.8333 H       1  ZINC001291841503    0.0500
     32 H32       -11.0424    0.7319   51.5086 H       1  ZINC001291841503    0.0500
     33 H33       -10.6095   -0.8885   50.9127 H       1  ZINC001291841503    0.0600
     34 H34       -10.3576   -1.6803   53.2491 H       1  ZINC001291841503    0.0800
     35 H35        -9.2857   -0.2969   52.9242 H       1  ZINC001291841503    0.0800
     36 H36       -13.7734   -4.1292   57.2647 H       1  ZINC001291841503    0.0500
     37 H37       -15.2287   -3.4059   57.9911 H       1  ZINC001291841503    0.0900
     38 H38       -14.8198   -3.0674   56.2921 H       1  ZINC001291841503    0.0700
     39 H39       -11.1366   -1.1933   59.1348 H       1  ZINC001291841503    0.0900
     40 H40       -12.5974   -0.1479   59.0949 H       1  ZINC001291841503    0.0800
     41 H41       -11.5568   -1.8919   61.3945 H       1  ZINC001291841503    0.0700
     42 H42       -12.1127   -0.1920   61.4565 H       1  ZINC001291841503    0.0900
     43 H43       -15.0266   -1.8497   59.7559 H       1  ZINC001291841503    0.0800
     44 H44       -14.3427   -3.3650   60.4048 H       1  ZINC001291841503    0.0700
     45 H45       -14.0653    0.5171   56.8963 H       1  ZINC001291841503    0.1100
     46 H46       -13.0669    1.3522   55.6822 H       1  ZINC001291841503    0.1100
     47 H47       -16.1110   -0.8240   56.0420 H       1  ZINC001291841503    0.1700
     48 H48       -17.3205    0.6557   51.3940 H       1  ZINC001291841503    0.0900
     49 H49       -15.9648   -0.3022   50.7513 H       1  ZINC001291841503    0.0800
     50 H50       -17.3550   -1.1206   51.5035 H       1  ZINC001291841503    0.0900
     51 H51       -10.2160    0.3078   56.7609 H       1  ZINC001291841503    0.1300
     52 H52        -8.5674    1.8349   57.7676 H       1  ZINC001291841503    0.1200
     53 H53        -7.3958    3.4822   56.3615 H       1  ZINC001291841503    0.1200
     54 H54        -7.8720    3.6016   53.9487 H       1  ZINC001291841503    0.1200
     55 H55        -9.5171    2.0714   52.9411 H       1  ZINC001291841503    0.1200
@<TRIPOS>BOND
     1     1     2    1
     2     1    31    1
     3     1    32    1
     4     1    33    1
     5     2     3    1
     6     2    34    1
     7     2    35    1
     8     3     4    1
     9     3     5    1
    10     3    25    1
    11     5    17    1
    12     5     6    2
    13     6     7    1
    14     7     8    2
    15     8     9    1
    16     8    17    1
    17     9    10    1
    18     9    11    1
    19    10    36    1
    20    10    37    1
    21    10    38    1
    22    11    12    1
    23    11    16    1
    24    11    13    1
    25    13    14    1
    26    13    39    1
    27    13    40    1
    28    14    15    1
    29    14    41    1
    30    14    42    1
    31    15    16    1
    32    16    43    1
    33    16    44    1
    34    17    18    1
    35    18    19    1
    36    18    45    1
    37    18    46    1
    38    19    24    1
    39    19    20    2
    40    20    21    1
    41    20    47    1
    42    21    22    2
    43    22    23    1
    44    22    24    1
    45    23    48    1
    46    23    49    1
    47    23    50    1
    48    25    30   ar
    49    25    26   ar
    50    26    27   ar
    51    26    51    1
    52    27    28   ar
    53    27    52    1
    54    28    29   ar
    55    28    53    1
    56    29    30   ar
    57    29    54    1
    58    30    55    1
@<TRIPOS>SUBSTRUCTURE
     1 ZINC001291841503        1 TEMP              0 ****  ****    0 ROOT


##########                                Name:    ZINC001091652821
##########                DOCK_Rotatable_Bonds:                   4
##########                         Heavy_Atoms:                  24
##########                    Molecular_Weight:             345.465
##########                DOCK_Rotatable_Bonds:                   4
##########                       Formal_Charge:          -0.0199997
##########                     HBond_Acceptors:                   6
##########                        HBond_Donors:                   0
##########                         Heavy_Atoms:                  24
##########                          Grid_Score:          -27.945854
##########                     Grid_vdw_energy:          -27.441900
##########                      Grid_es_energy:           -0.503953
##########           Internal_energy_repulsive:            5.509236

@<TRIPOS>MOLECULE
ZINC001091652821
 47 50 1 0 0
SMALL
USER_CHARGES


@<TRIPOS>ATOM
      1 C1         -6.5589    2.5573   52.5934 C.3     1  ZINC001091652821   -0.1000
      2 C2         -5.5805    2.6652   51.4524 C.2     1  ZINC001091652821   -0.1200
      3 C3         -5.9654    2.6359   50.1712 C.2     1  ZINC001091652821   -0.2400
      4 S4         -4.6235    2.7799   49.1274 S.3     1  ZINC001091652821    0.2100
      5 C5         -3.5148    2.8822   50.4883 C.2     1  ZINC001091652821   -0.2700
      6 C6         -2.0598    3.0305   50.3905 C.2     1  ZINC001091652821    0.6100
      7 O7         -1.5188    4.0275   50.8314 O.2     1  ZINC001091652821   -0.5200
      8 N8         -1.3212    2.0627   49.8123 N.am    1  ZINC001091652821   -0.6200
      9 C9         -1.8189    0.8067   49.2278 C.3     1  ZINC001091652821    0.0900
     10 C10        -0.8645    0.4564   48.0744 C.3     1  ZINC001091652821   -0.0900
     11 H11        -0.6658   -0.6139   48.0186 H       1  ZINC001091652821    0.1100
     12 C12        -1.4443    1.0074   46.7549 C.3     1  ZINC001091652821    0.0400
     13 N13        -0.2825    1.6168   46.0584 N.3     1  ZINC001091652821   -0.5000
     14 C14        -0.7240    2.5932   45.0536 C.3     1  ZINC001091652821    0.1200
     15 C15         0.4786    3.2725   44.4510 C.2     1  ZINC001091652821    0.0000
     16 C16         0.9098    4.5141   44.7285 C.2     1  ZINC001091652821   -0.0800
     17 O17         2.0080    4.7296   43.9780 O.3     1  ZINC001091652821   -0.2000
     18 C18         2.2326    3.6238   43.2558 C.2     1  ZINC001091652821    0.1900
     19 C19         3.3626    3.4287   42.2780 C.3     1  ZINC001091652821   -0.0600
     20 N20         1.3171    2.7429   43.5427 N.2     1  ZINC001091652821   -0.4700
     21 C21         0.4860    2.2795   47.1428 C.3     1  ZINC001091652821    0.0400
     22 C22         0.4229    1.2766   48.3461 C.3     1  ZINC001091652821   -0.0700
     23 C23         1.6828    0.4137   48.4413 C.3     1  ZINC001091652821   -0.1300
     24 C24         0.1403    2.0581   49.6364 C.3     1  ZINC001091652821    0.1200
     25 C25        -4.2276    2.8070   51.6518 C.2     1  ZINC001091652821   -0.0500
     26 H26        -6.9025    3.5533   52.8728 H       1  ZINC001091652821    0.0700
     27 H27        -7.4115    1.9522   52.2849 H       1  ZINC001091652821    0.0700
     28 H28        -6.0707    2.0885   53.4477 H       1  ZINC001091652821    0.0700
     29 H29        -6.9889    2.5341   49.8418 H       1  ZINC001091652821    0.1700
     30 H30        -1.8069    0.0149   49.9769 H       1  ZINC001091652821    0.0800
     31 H31        -2.8305    0.9466   48.8469 H       1  ZINC001091652821    0.0800
     32 H32        -1.8638    0.1983   46.1570 H       1  ZINC001091652821    0.0800
     33 H33        -2.2032    1.7626   46.9595 H       1  ZINC001091652821    0.0500
     34 H34        -1.2825    2.0811   44.2701 H       1  ZINC001091652821    0.0500
     35 H35        -1.3629    3.3385   45.5274 H       1  ZINC001091652821    0.1000
     36 H36         0.4605    5.2091   45.4225 H       1  ZINC001091652821    0.2100
     37 H37         3.9749    4.3300   42.2457 H       1  ZINC001091652821    0.0900
     38 H38         3.9753    2.5846   42.5943 H       1  ZINC001091652821    0.1000
     39 H39         2.9551    3.2306   41.2866 H       1  ZINC001091652821    0.1000
     40 H40         1.5216    2.4293   46.8376 H       1  ZINC001091652821    0.0900
     41 H41         0.0258    3.2314   47.4076 H       1  ZINC001091652821    0.0500
     42 H42         2.5509    1.0543   48.5970 H       1  ZINC001091652821    0.0600
     43 H43         1.5869   -0.2780   49.2782 H       1  ZINC001091652821    0.0600
     44 H44         1.8080   -0.1496   47.5167 H       1  ZINC001091652821    0.0700
     45 H45         0.4917    3.0851   49.5362 H       1  ZINC001091652821    0.0900
     46 H46         0.6311    1.5751   50.4813 H       1  ZINC001091652821    0.0800
     47 H47        -3.7727    2.8469   52.6304 H       1  ZINC001091652821    0.1500
@<TRIPOS>BOND
     1     1     2    1
     2     1    26    1
     3     1    27    1
     4     1    28    1
     5     2    25    1
     6     2     3    2
     7     3     4    1
     8     3    29    1
     9     4     5    1
    10     5     6    1
    11     5    25    2
    12     6     7    2
    13     6     8   am
    14     8    24    1
    15     8     9    1
    16     9    10    1
    17     9    30    1
    18     9    31    1
    19    10    11    1
    20    10    22    1
    21    10    12    1
    22    12    13    1
    23    12    32    1
    24    12    33    1
    25    13    14    1
    26    13    21    1
    27    14    15    1
    28    14    34    1
    29    14    35    1
    30    15    20    1
    31    15    16    2
    32    16    17    1
    33    16    36    1
    34    17    18    1
    35    18    19    1
    36    18    20    2
    37    19    37    1
    38    19    38    1
    39    19    39    1
    40    21    22    1
    41    21    40    1
    42    21    41    1
    43    22    23    1
    44    22    24    1
    45    23    42    1
    46    23    43    1
    47    23    44    1
    48    24    45    1
    49    24    46    1
    50    25    47    1
@<TRIPOS>SUBSTRUCTURE
     1 ZINC001091652821        1 TEMP              0 ****  ****    0 ROOT


##########                                Name:    ZINC000011498449
##########                DOCK_Rotatable_Bonds:                   5
##########                         Heavy_Atoms:                  21
##########                    Molecular_Weight:             331.198
##########                DOCK_Rotatable_Bonds:                   5
##########                       Formal_Charge:         1.30385e-07
##########                     HBond_Acceptors:                   7
##########                        HBond_Donors:                   1
##########                         Heavy_Atoms:                  21
##########                          Grid_Score:          -27.906887
##########                     Grid_vdw_energy:          -27.205866
##########                      Grid_es_energy:           -0.701020
##########           Internal_energy_repulsive:           12.038387

@<TRIPOS>MOLECULE
ZINC000011498449
 37 38 1 0 0
SMALL
USER_CHARGES


@<TRIPOS>ATOM
      1 C1         -6.4296    3.1706   54.5696 C.3     1  ZINC000011498449   -0.1500
      2 C2         -6.6837    3.2174   53.0615 C.3     1  ZINC000011498449    0.0700
      3 H3         -7.1572    2.2887   52.7432 H       1  ZINC000011498449    0.0600
      4 C4         -5.3517    3.3923   52.3232 C.3     1  ZINC000011498449    0.0800
      5 N5         -5.6378    3.6218   50.8980 N.am    1  ZINC000011498449   -0.6100
      6 C6         -5.0199    2.9010   49.9416 C.2     1  ZINC000011498449    0.5100
      7 O7         -5.2680    3.1061   48.7722 O.2     1  ZINC000011498449   -0.5300
      8 C8         -4.0205    1.8402   50.3249 C.3     1  ZINC000011498449    0.1000
      9 N9         -3.2336    1.4626   49.1483 N.am    1  ZINC000011498449   -0.7200
     10 C10        -2.0580    2.0730   48.8995 C.2     1  ZINC000011498449    0.5600
     11 O11        -1.6499    2.9360   49.6522 O.2     1  ZINC000011498449   -0.5100
     12 C12        -1.2655    1.6935   47.7122 C.ar    1  ZINC000011498449   -0.1300
     13 C13        -0.8445    2.6711   46.8084 C.ar    1  ZINC000011498449   -0.0600
     14 C14        -0.1046    2.3108   45.7023 C.ar    1  ZINC000011498449   -0.1100
     15 C15         0.2220    0.9820   45.4857 C.ar    1  ZINC000011498449    0.0000
     16 Cl16        1.1544    0.5376   44.0905 Cl      1  ZINC000011498449   -0.0400
     17 C17        -0.1918    0.0069   46.3774 C.ar    1  ZINC000011498449   -0.1100
     18 C18        -0.9287    0.3550   47.4918 C.ar    1  ZINC000011498449    0.0300
     19 Cl19       -1.4469   -0.8682   48.6092 Cl      1  ZINC000011498449   -0.0100
     20 C20        -6.6189    4.6613   50.5482 C.3     1  ZINC000011498449    0.0700
     21 C21        -7.8891    4.4246   51.3731 C.3     1  ZINC000011498449    0.0500
     22 O22        -7.5409    4.3198   52.7556 O.3     1  ZINC000011498449   -0.3700
     23 H23        -7.3773    3.0480   55.0941 H       1  ZINC000011498449    0.0700
     24 H24        -5.7746    2.3310   54.8018 H       1  ZINC000011498449    0.0800
     25 H25        -5.9561    4.0996   54.8873 H       1  ZINC000011498449    0.0700
     26 H26        -4.8148    4.2481   52.7323 H       1  ZINC000011498449    0.0800
     27 H27        -4.7483    2.4916   52.4361 H       1  ZINC000011498449    0.1000
     28 H28        -3.3561    2.2288   51.0968 H       1  ZINC000011498449    0.1000
     29 H29        -4.5474    0.9653   50.7058 H       1  ZINC000011498449    0.1000
     30 H30        -3.5586    0.7731   48.5483 H       1  ZINC000011498449    0.4100
     31 H31        -1.0984    3.7074   46.9753 H       1  ZINC000011498449    0.1500
     32 H32         0.2209    3.0663   45.0026 H       1  ZINC000011498449    0.1500
     33 H33         0.0659   -1.0273   46.2031 H       1  ZINC000011498449    0.1500
     34 H34        -6.2096    5.6449   50.7786 H       1  ZINC000011498449    0.0900
     35 H35        -6.8546    4.6009   49.4857 H       1  ZINC000011498449    0.1000
     36 H36        -8.5753    5.2597   51.2328 H       1  ZINC000011498449    0.1100
     37 H37        -8.3674    3.5007   51.0479 H       1  ZINC000011498449    0.0600
@<TRIPOS>BOND
     1     1     2    1
     2     1    23    1
     3     1    24    1
     4     1    25    1
     5     2     3    1
     6     2    22    1
     7     2     4    1
     8     4     5    1
     9     4    26    1
    10     4    27    1
    11     5     6   am
    12     5    20    1
    13     6     7    2
    14     6     8    1
    15     8     9    1
    16     8    28    1
    17     8    29    1
    18     9    10   am
    19     9    30    1
    20    10    11    2
    21    10    12    1
    22    12    18   ar
    23    12    13   ar
    24    13    14   ar
    25    13    31    1
    26    14    15   ar
    27    14    32    1
    28    15    16    1
    29    15    17   ar
    30    17    18   ar
    31    17    33    1
    32    18    19    1
    33    20    21    1
    34    20    34    1
    35    20    35    1
    36    21    22    1
    37    21    36    1
    38    21    37    1
@<TRIPOS>SUBSTRUCTURE
     1 ZINC000011498449        1 TEMP              0 ****  ****    0 ROOT


##########                                Name:    ZINC001362451754
##########                DOCK_Rotatable_Bonds:                   6
##########                         Heavy_Atoms:                  22
##########                    Molecular_Weight:             339.846
##########                DOCK_Rotatable_Bonds:                   6
##########                       Formal_Charge:         -0.00999987
##########                     HBond_Acceptors:                   7
##########                        HBond_Donors:                   1
##########                         Heavy_Atoms:                  22
##########                          Grid_Score:          -27.888901
##########                     Grid_vdw_energy:          -28.527906
##########                      Grid_es_energy:            0.639005
##########           Internal_energy_repulsive:           20.347126

@<TRIPOS>MOLECULE
ZINC001362451754
 40 42 1 0 0
SMALL
USER_CHARGES


@<TRIPOS>ATOM
      1 C1         -0.5684   -0.4624   46.4825 C.3     1  ZINC001362451754   -0.1700
      2 C2          0.1447    0.6945   47.1854 C.3     1  ZINC001362451754    0.1400
      3 H3          0.9681    0.3131   47.7892 H       1  ZINC001362451754    0.0800
      4 C4          0.6804    1.6943   46.1389 C.3     1  ZINC001362451754   -0.1000
      5 H5          1.6323    2.1165   46.4609 H       1  ZINC001362451754    0.1000
      6 C6          0.8191    1.0236   44.7708 C.3     1  ZINC001362451754    0.0900
      7 O7          1.3193    1.9704   43.8246 O.3     1  ZINC001362451754   -0.5700
      8 C8         -0.4213    2.7863   46.1058 C.3     1  ZINC001362451754   -0.1200
      9 C9         -0.8688    2.8246   47.5861 C.3     1  ZINC001362451754    0.0900
     10 N10        -0.8054    1.4230   48.0387 N.am    1  ZINC001362451754   -0.6100
     11 C11        -1.5067    0.8954   49.0617 C.2     1  ZINC001362451754    0.6100
     12 O12        -1.3742   -0.2800   49.3479 O.2     1  ZINC001362451754   -0.5200
     13 C13        -2.4289    1.7374   49.8293 C.2     1  ZINC001362451754   -0.2500
     14 C14        -2.0653    2.6474   50.7816 C.2     1  ZINC001362451754   -0.0500
     15 C15        -3.1355    3.2967   51.3500 C.2     1  ZINC001362451754   -0.1100
     16 C16        -4.3341    2.9400   50.8736 C.2     1  ZINC001362451754   -0.2500
     17 C17        -5.6452    3.5176   51.3407 C.3     1  ZINC001362451754    0.2100
     18 N18        -6.5509    2.4300   51.7191 N.pl3   1  ZINC001362451754   -0.3700
     19 C19        -7.5817    2.5200   52.5868 C.2     1  ZINC001362451754    0.0700
     20 C20        -8.1682    1.3020   52.6579 C.2     1  ZINC001362451754   -0.1800
     21 Cl21       -9.5436    0.8858   53.6319 Cl      1  ZINC001362451754   -0.0400
     22 C22        -7.4659    0.4363   51.8121 C.2     1  ZINC001362451754    0.0700
     23 N23        -6.4968    1.1114   51.2492 N.2     1  ZINC001362451754   -0.2700
     24 S24        -4.1802    1.7380   49.6725 S.3     1  ZINC001362451754    0.2300
     25 H25        -1.3935   -0.0722   45.8866 H       1  ZINC001362451754    0.0600
     26 H26         0.1356   -0.9817   45.8323 H       1  ZINC001362451754    0.0700
     27 H27        -0.9553   -1.1572   47.2278 H       1  ZINC001362451754    0.0700
     28 H28         1.5110    0.1846   44.8459 H       1  ZINC001362451754    0.0500
     29 H29        -0.1557    0.6623   44.4428 H       1  ZINC001362451754    0.0500
     30 H30         1.4381    2.8602   44.1838 H       1  ZINC001362451754    0.3800
     31 H31        -0.0101    3.7468   45.7952 H       1  ZINC001362451754    0.0900
     32 H32        -1.2465    2.4893   45.4586 H       1  ZINC001362451754    0.0800
     33 H33        -1.8879    3.2031   47.6651 H       1  ZINC001362451754    0.0800
     34 H34        -0.1872    3.4430   48.1701 H       1  ZINC001362451754    0.0800
     35 H35        -1.0395    2.8348   51.0630 H       1  ZINC001362451754    0.1600
     36 H36        -3.0173    4.0428   52.1218 H       1  ZINC001362451754    0.1500
     37 H37        -5.4718    4.1623   52.2024 H       1  ZINC001362451754    0.1100
     38 H38        -6.0932    4.0999   50.5355 H       1  ZINC001362451754    0.1100
     39 H39        -7.8853    3.4055   53.1254 H       1  ZINC001362451754    0.1800
     40 H40        -7.6858   -0.6090   51.6518 H       1  ZINC001362451754    0.1900
@<TRIPOS>BOND
     1     1     2    1
     2     1    25    1
     3     1    26    1
     4     1    27    1
     5     2     3    1
     6     2    10    1
     7     2     4    1
     8     4     5    1
     9     4     6    1
    10     4     8    1
    11     6     7    1
    12     6    28    1
    13     6    29    1
    14     7    30    1
    15     8     9    1
    16     8    31    1
    17     8    32    1
    18     9    10    1
    19     9    33    1
    20     9    34    1
    21    10    11   am
    22    11    12    2
    23    11    13    1
    24    13    24    1
    25    13    14    2
    26    14    15    1
    27    14    35    1
    28    15    16    2
    29    15    36    1
    30    16    17    1
    31    16    24    1
    32    17    18    1
    33    17    37    1
    34    17    38    1
    35    18    23    1
    36    18    19    1
    37    19    20    2
    38    19    39    1
    39    20    21    1
    40    20    22    1
    41    22    23    2
    42    22    40    1
@<TRIPOS>SUBSTRUCTURE
     1 ZINC001362451754        1 TEMP              0 ****  ****    0 ROOT


##########                                Name:    ZINC000836820897
##########                DOCK_Rotatable_Bonds:                   5
##########                         Heavy_Atoms:                  22
##########                    Molecular_Weight:             330.355
##########                DOCK_Rotatable_Bonds:                   5
##########                       Formal_Charge:          -0.0200003
##########                     HBond_Acceptors:                   8
##########                        HBond_Donors:                   1
##########                         Heavy_Atoms:                  22
##########                          Grid_Score:          -27.877781
##########                     Grid_vdw_energy:          -27.306101
##########                      Grid_es_energy:           -0.571680
##########           Internal_energy_repulsive:            6.876826

@<TRIPOS>MOLECULE
ZINC000836820897
 38 40 1 0 0
SMALL
USER_CHARGES


@<TRIPOS>ATOM
      1 O1         -1.5716    3.3802   51.5466 O.2     1  ZINC000836820897   -0.5200
      2 C2         -2.1716    3.0007   50.5598 C.2     1  ZINC000836820897    0.5800
      3 C3         -1.4326    2.6977   49.3170 C.ar    1  ZINC000836820897   -0.1600
      4 C4         -0.8626    3.7312   48.5711 C.ar    1  ZINC000836820897   -0.0100
      5 C5         -0.1736    3.4428   47.4124 C.ar    1  ZINC000836820897   -0.1700
      6 C6         -0.0462    2.1294   46.9874 C.ar    1  ZINC000836820897    0.2200
      7 F7          0.6301    1.8522   45.8511 F       1  ZINC000836820897   -0.1100
      8 C8         -0.6099    1.0990   47.7248 C.ar    1  ZINC000836820897   -0.7200
      9 S9         -0.4421   -0.5676   47.1780 S.o2    1  ZINC000836820897    2.7000
     10 O10        -0.9316   -1.3866   48.2310 O.2     1  ZINC000836820897   -0.9400
     11 O11        -0.9602   -0.6102   45.8555 O.2     1  ZINC000836820897   -0.9400
     12 N12         1.1791   -0.8825   47.0556 N.am    1  ZINC000836820897   -1.0800
     13 C13         2.0379   -0.7724   48.2373 C.3     1  ZINC000836820897    0.0700
     14 C14         3.5370   -0.5734   48.0051 C.3     1  ZINC000836820897   -0.1800
     15 C15         2.6818    0.5867   48.5184 C.3     1  ZINC000836820897   -0.1900
     16 C16        -1.2966    1.3757   48.8872 C.ar    1  ZINC000836820897    0.0600
     17 N17        -3.5104    2.8510   50.6011 N.am    1  ZINC000836820897   -0.6200
     18 C18        -4.3558    2.3903   49.4900 C.3     1  ZINC000836820897    0.0900
     19 C19        -5.8095    2.3499   50.0066 C.3     1  ZINC000836820897   -0.1600
     20 C20        -5.6292    2.2479   51.5443 C.3     1  ZINC000836820897    0.0800
     21 H21        -5.4489    1.2170   51.8491 H       1  ZINC000836820897    0.1100
     22 F22        -6.7353    2.7803   52.2152 F       1  ZINC000836820897   -0.1900
     23 C23        -4.3689    3.1161   51.7699 C.3     1  ZINC000836820897    0.0800
     24 H24        -0.9616    4.7548   48.9011 H       1  ZINC000836820897    0.1500
     25 H25         0.2674    4.2415   46.8344 H       1  ZINC000836820897    0.1600
     26 H26         1.5600   -1.1398   46.2014 H       1  ZINC000836820897    0.4200
     27 H27         1.7366   -1.3735   49.0951 H       1  ZINC000836820897    0.1400
     28 H28         4.2223   -1.0439   48.7101 H       1  ZINC000836820897    0.1100
     29 H29         3.8842   -0.5246   46.9730 H       1  ZINC000836820897    0.1000
     30 H30         2.4665    1.3990   47.8241 H       1  ZINC000836820897    0.1000
     31 H31         2.8045    0.8796   49.5612 H       1  ZINC000836820897    0.1000
     32 H32        -1.7351    0.5725   49.4608 H       1  ZINC000836820897    0.1600
     33 H33        -4.2790    3.0844   48.6532 H       1  ZINC000836820897    0.0800
     34 H34        -4.0458    1.3932   49.1770 H       1  ZINC000836820897    0.0800
     35 H35        -6.3390    3.2645   49.7402 H       1  ZINC000836820897    0.0900
     36 H36        -6.3317    1.4743   49.6207 H       1  ZINC000836820897    0.1000
     37 H37        -3.8646    2.8209   52.6901 H       1  ZINC000836820897    0.1000
     38 H38        -4.6370    4.1720   51.8053 H       1  ZINC000836820897    0.0900
@<TRIPOS>BOND
     1     1     2    2
     2     2     3    1
     3     2    17   am
     4     3    16   ar
     5     3     4   ar
     6     4     5   ar
     7     4    24    1
     8     5     6   ar
     9     5    25    1
    10     6     7    1
    11     6     8   ar
    12     8     9    1
    13     8    16   ar
    14     9    10    2
    15     9    11    2
    16     9    12   am
    17    12    13    1
    18    12    26    1
    19    13    15    1
    20    13    14    1
    21    13    27    1
    22    14    15    1
    23    14    28    1
    24    14    29    1
    25    15    30    1
    26    15    31    1
    27    16    32    1
    28    17    23    1
    29    17    18    1
    30    18    19    1
    31    18    33    1
    32    18    34    1
    33    19    20    1
    34    19    35    1
    35    19    36    1
    36    20    21    1
    37    20    22    1
    38    20    23    1
    39    23    37    1
    40    23    38    1
@<TRIPOS>SUBSTRUCTURE
     1 ZINC000836820897        1 TEMP              0 ****  ****    0 ROOT


##########                                Name:    ZINC001085711660
##########                DOCK_Rotatable_Bonds:                   8
##########                         Heavy_Atoms:                  25
##########                    Molecular_Weight:             347.414
##########                DOCK_Rotatable_Bonds:                   8
##########                       Formal_Charge:         -0.00999993
##########                     HBond_Acceptors:                   7
##########                        HBond_Donors:                   0
##########                         Heavy_Atoms:                  25
##########                          Grid_Score:          -27.873480
##########                     Grid_vdw_energy:          -26.565796
##########                      Grid_es_energy:           -1.307684
##########           Internal_energy_repulsive:           13.123840

@<TRIPOS>MOLECULE
ZINC001085711660
 50 52 1 0 0
SMALL
USER_CHARGES


@<TRIPOS>ATOM
      1 C1         -8.9252    0.9871   52.4544 C.3     1  ZINC001085711660    0.0300
      2 O2         -9.1396   -0.3310   51.9458 O.3     1  ZINC001085711660   -0.3800
      3 C3        -10.5171   -0.6732   51.7804 C.3     1  ZINC001085711660    0.1400
      4 C4        -11.1799   -0.7559   53.1313 C.2     1  ZINC001085711660    0.0100
      5 C5        -12.4523   -0.3940   53.4070 C.2     1  ZINC001085711660   -0.1900
      6 C6        -12.6624   -0.6317   54.7744 C.2     1  ZINC001085711660   -0.1200
      7 C7        -11.4929   -1.1328   55.2698 C.2     1  ZINC001085711660   -0.0700
      8 C8        -11.2453   -1.5282   56.6602 C.2     1  ZINC001085711660    0.6000
      9 O9        -11.6928   -2.5779   57.0833 O.2     1  ZINC001085711660   -0.5200
     10 N10       -10.5222   -0.7290   57.4695 N.am    1  ZINC001085711660   -0.6000
     11 C11        -9.9836    0.5347   56.9603 C.3     1  ZINC001085711660    0.0700
     12 C12       -10.2749   -1.1239   58.8585 C.3     1  ZINC001085711660    0.1300
     13 C13       -10.6124    0.0433   59.7883 C.3     1  ZINC001085711660    0.0000
     14 H14       -11.0448    0.8924   59.2589 H       1  ZINC001085711660    0.1000
     15 C15        -9.4610    0.4299   60.7271 C.3     1  ZINC001085711660   -0.1400
     16 C16       -10.5887    0.6195   61.7513 C.3     1  ZINC001085711660    0.0100
     17 N17       -11.3811   -0.3589   60.9810 N.3     1  ZINC001085711660   -0.4500
     18 C18       -12.7829    0.0668   60.8738 C.3     1  ZINC001085711660    0.1500
     19 H19       -12.8327    1.0285   60.3631 H       1  ZINC001085711660    0.1000
     20 C20       -13.3836    0.2014   62.2745 C.3     1  ZINC001085711660   -0.1900
     21 C21       -13.5608   -0.9589   60.0902 C.2     1  ZINC001085711660    0.2000
     22 N22       -13.6508   -2.2259   60.3789 N.2     1  ZINC001085711660   -0.4700
     23 C23       -14.4269   -2.8239   59.4579 C.2     1  ZINC001085711660   -0.0400
     24 C24       -14.8189   -1.8836   58.5823 C.2     1  ZINC001085711660   -0.0500
     25 C25       -15.7022   -2.0930   57.3793 C.3     1  ZINC001085711660   -0.0700
     26 O26       -14.2782   -0.7168   58.9851 O.3     1  ZINC001085711660   -0.2000
     27 O27       -10.6067   -1.2055   54.2552 O.3     1  ZINC001085711660   -0.1500
     28 H28        -9.3576    1.7159   51.7689 H       1  ZINC001085711660    0.0500
     29 H29        -9.3995    1.0812   53.4313 H       1  ZINC001085711660    0.0500
     30 H30        -7.8549    1.1696   52.5512 H       1  ZINC001085711660    0.0900
     31 H31       -11.0115    0.0897   51.1793 H       1  ZINC001085711660    0.0900
     32 H32       -10.5941   -1.6376   51.2783 H       1  ZINC001085711660    0.0700
     33 H33       -13.1723    0.0034   52.7069 H       1  ZINC001085711660    0.1600
     34 H34       -13.5727   -0.4527   55.3273 H       1  ZINC001085711660    0.1600
     35 H35       -10.7491    1.3079   57.0241 H       1  ZINC001085711660    0.0600
     36 H36        -9.1201    0.8283   57.5571 H       1  ZINC001085711660    0.0900
     37 H37        -9.6808    0.4080   55.9209 H       1  ZINC001085711660    0.0800
     38 H38       -10.9001   -1.9808   59.1093 H       1  ZINC001085711660    0.0900
     39 H39        -9.2253   -1.3923   58.9785 H       1  ZINC001085711660    0.0900
     40 H40        -8.7802   -0.3891   60.9593 H       1  ZINC001085711660    0.1000
     41 H41        -8.9497    1.3520   60.4503 H       1  ZINC001085711660    0.0800
     42 H42       -10.3282    0.2762   62.7524 H       1  ZINC001085711660    0.0900
     43 H43       -11.0154    1.6224   61.7466 H       1  ZINC001085711660    0.0800
     44 H44       -13.2359   -0.7281   62.8241 H       1  ZINC001085711660    0.0800
     45 H45       -12.8926    1.0182   62.8034 H       1  ZINC001085711660    0.0800
     46 H46       -14.4504    0.4102   62.1938 H       1  ZINC001085711660    0.0700
     47 H47       -14.6878   -3.8715   59.4274 H       1  ZINC001085711660    0.1800
     48 H48       -16.7446   -1.9534   57.6653 H       1  ZINC001085711660    0.0800
     49 H49       -15.4382   -1.3727   56.6050 H       1  ZINC001085711660    0.0800
     50 H50       -15.5624   -3.1043   56.9976 H       1  ZINC001085711660    0.0900
@<TRIPOS>BOND
     1     1     2    1
     2     1    28    1
     3     1    29    1
     4     1    30    1
     5     2     3    1
     6     3     4    1
     7     3    31    1
     8     3    32    1
     9     4    27    1
    10     4     5    2
    11     5     6    1
    12     5    33    1
    13     6     7    2
    14     6    34    1
    15     7     8    1
    16     7    27    1
    17     8     9    2
    18     8    10   am
    19    10    11    1
    20    10    12    1
    21    11    35    1
    22    11    36    1
    23    11    37    1
    24    12    13    1
    25    12    38    1
    26    12    39    1
    27    13    14    1
    28    13    17    1
    29    13    15    1
    30    15    16    1
    31    15    40    1
    32    15    41    1
    33    16    17    1
    34    16    42    1
    35    16    43    1
    36    17    18    1
    37    18    19    1
    38    18    20    1
    39    18    21    1
    40    20    44    1
    41    20    45    1
    42    20    46    1
    43    21    26    1
    44    21    22    2
    45    22    23    1
    46    23    24    2
    47    23    47    1
    48    24    25    1
    49    24    26    1
    50    25    48    1
    51    25    49    1
    52    25    50    1
@<TRIPOS>SUBSTRUCTURE
     1 ZINC001085711660        1 TEMP              0 ****  ****    0 ROOT


##########                                Name:    ZINC000647468483
##########                DOCK_Rotatable_Bonds:                   5
##########                         Heavy_Atoms:                  24
##########                    Molecular_Weight:             341.373
##########                DOCK_Rotatable_Bonds:                   5
##########                       Formal_Charge:           0.0300004
##########                     HBond_Acceptors:                   6
##########                        HBond_Donors:                   2
##########                         Heavy_Atoms:                  24
##########                          Grid_Score:          -27.873257
##########                     Grid_vdw_energy:          -27.496662
##########                      Grid_es_energy:           -0.376594
##########           Internal_energy_repulsive:           22.644331

@<TRIPOS>MOLECULE
ZINC000647468483
 46 48 1 0 0
SMALL
USER_CHARGES


@<TRIPOS>ATOM
      1 O1          1.7241    4.1384   42.0038 O.co2   1  ZINC000647468483   -0.6800
      2 C2          1.5951    3.4059   42.9698 C.2     1  ZINC000647468483    0.5000
      3 O3          2.2811    2.4030   43.0704 O.co2   1  ZINC000647468483   -0.6900
      4 C4          0.5920    3.7434   44.0427 C.3     1  ZINC000647468483   -0.1500
      5 H5         -0.3038    4.1856   43.6065 H       1  ZINC000647468483    0.0800
      6 C6          1.2144    4.6915   45.0975 C.3     1  ZINC000647468483   -0.1100
      7 C7          0.3659    4.4572   46.3643 C.3     1  ZINC000647468483   -0.1400
      8 C8         -0.2547    3.0561   46.2248 C.3     1  ZINC000647468483    0.0100
      9 H9         -1.3424    3.1278   46.2240 H       1  ZINC000647468483    0.1400
     10 N10         0.1916    2.1958   47.3287 N.4     1  ZINC000647468483   -0.5000
     11 H11         1.1970    2.2388   47.4033 H       1  ZINC000647468483    0.4200
     12 H12        -0.2236    2.5134   48.1917 H       1  ZINC000647468483    0.4300
     13 C13        -0.2211    0.8104   47.0674 C.3     1  ZINC000647468483    0.0200
     14 H14        -0.9030    0.7781   46.2176 H       1  ZINC000647468483    0.1500
     15 C15         1.0137   -0.0634   46.7859 C.3     1  ZINC000647468483   -0.1400
     16 C16         1.0378   -1.1563   47.8744 C.3     1  ZINC000647468483   -0.1300
     17 C17         0.2307   -0.5435   49.0458 C.3     1  ZINC000647468483   -0.1300
     18 C18        -0.9056    0.2185   48.3168 C.3     1  ZINC000647468483   -0.0600
     19 H19        -1.7010   -0.4684   48.0275 H       1  ZINC000647468483    0.1300
     20 C20        -1.4513    1.3162   49.1933 C.ar    1  ZINC000647468483   -0.1200
     21 C21        -0.5865    2.1345   49.8952 C.ar    1  ZINC000647468483   -0.0700
     22 C22        -1.0872    3.1416   50.6993 C.ar    1  ZINC000647468483   -0.1000
     23 C23        -2.4527    3.3302   50.8010 C.ar    1  ZINC000647468483   -0.0600
     24 C24        -3.3177    2.5121   50.0982 C.ar    1  ZINC000647468483   -0.1600
     25 C25        -4.8066    2.7176   50.2095 C.3     1  ZINC000647468483    0.5000
     26 F26        -5.0866    3.4987   51.3357 F       1  ZINC000647468483   -0.1700
     27 F27        -5.2746    3.3679   49.0627 F       1  ZINC000647468483   -0.1700
     28 F28        -5.4405    1.4765   50.3333 F       1  ZINC000647468483   -0.1700
     29 C29        -2.8170    1.5081   49.2910 C.ar    1  ZINC000647468483   -0.1100
     30 C30         0.2345    2.4869   44.8747 C.3     1  ZINC000647468483   -0.1200
     31 H31         2.2556    4.4266   45.2813 H       1  ZINC000647468483    0.0800
     32 H32         1.1354    5.7288   44.7719 H       1  ZINC000647468483    0.0800
     33 H33         0.9990    4.4986   47.2506 H       1  ZINC000647468483    0.0700
     34 H34        -0.4206    5.2090   46.4313 H       1  ZINC000647468483    0.1000
     35 H35         0.9308   -0.5204   45.7998 H       1  ZINC000647468483    0.1000
     36 H36         1.9194    0.5406   46.8431 H       1  ZINC000647468483    0.0900
     37 H37         0.5560   -2.0650   47.5134 H       1  ZINC000647468483    0.0800
     38 H38         2.0621   -1.3636   48.1842 H       1  ZINC000647468483    0.0900
     39 H39        -0.1776   -1.3264   49.6849 H       1  ZINC000647468483    0.0900
     40 H40         0.8489    0.1444   49.6227 H       1  ZINC000647468483    0.0800
     41 H41         0.4805    1.9871   49.8156 H       1  ZINC000647468483    0.1400
     42 H42        -0.4114    3.7805   51.2483 H       1  ZINC000647468483    0.1500
     43 H43        -2.8438    4.1163   51.4298 H       1  ZINC000647468483    0.1500
     44 H44        -3.4928    0.8691   48.7420 H       1  ZINC000647468483    0.1400
     45 H45        -0.5585    1.9162   44.3914 H       1  ZINC000647468483    0.0900
     46 H46         1.1183    1.8657   45.0204 H       1  ZINC000647468483    0.1000
@<TRIPOS>BOND
     1     1     2   ar
     2     2     3   ar
     3     2     4    1
     4     4     5    1
     5     4    30    1
     6     4     6    1
     7     6     7    1
     8     6    31    1
     9     6    32    1
    10     7     8    1
    11     7    33    1
    12     7    34    1
    13     8     9    1
    14     8    10    1
    15     8    30    1
    16    10    11    1
    17    10    12    1
    18    10    13    1
    19    13    14    1
    20    13    18    1
    21    13    15    1
    22    15    16    1
    23    15    35    1
    24    15    36    1
    25    16    17    1
    26    16    37    1
    27    16    38    1
    28    17    18    1
    29    17    39    1
    30    17    40    1
    31    18    19    1
    32    18    20    1
    33    20    29   ar
    34    20    21   ar
    35    21    22   ar
    36    21    41    1
    37    22    23   ar
    38    22    42    1
    39    23    24   ar
    40    23    43    1
    41    24    25    1
    42    24    29   ar
    43    25    26    1
    44    25    27    1
    45    25    28    1
    46    29    44    1
    47    30    45    1
    48    30    46    1
@<TRIPOS>SUBSTRUCTURE
     1 ZINC000647468483        1 TEMP              0 ****  ****    0 ROOT


##########                                Name:    ZINC000028372981
##########                DOCK_Rotatable_Bonds:                   7
##########                         Heavy_Atoms:                  28
##########                    Molecular_Weight:             380.443
##########                DOCK_Rotatable_Bonds:                   7
##########                       Formal_Charge:         1.78814e-07
##########                     HBond_Acceptors:                   6
##########                        HBond_Donors:                   1
##########                         Heavy_Atoms:                  28
##########                          Grid_Score:          -27.872177
##########                     Grid_vdw_energy:          -26.938910
##########                      Grid_es_energy:           -0.933268
##########           Internal_energy_repulsive:           18.381161

@<TRIPOS>MOLECULE
ZINC000028372981
 52 54 1 0 0
SMALL
USER_CHARGES


@<TRIPOS>ATOM
      1 C1         -8.8671    1.5432   64.3978 C.3     1  ZINC000028372981   -0.1800
      2 C2        -10.0835    0.9460   63.7387 C.2     1  ZINC000028372981    0.5200
      3 O3        -11.1677    1.0319   64.2753 O.2     1  ZINC000028372981   -0.5100
      4 N4         -9.9666    0.3163   62.5528 N.am    1  ZINC000028372981   -0.5500
      5 C5         -8.7141    0.1516   61.8108 C.3     1  ZINC000028372981    0.1000
      6 C6         -9.0972   -0.6222   60.5388 C.3     1  ZINC000028372981   -0.0900
      7 C7        -10.5883   -0.8431   60.6642 C.ar    1  ZINC000028372981   -0.1500
      8 C8        -11.4778   -1.4810   59.8291 C.ar    1  ZINC000028372981    0.0000
      9 C9        -12.8316   -1.5497   60.1705 C.ar    1  ZINC000028372981   -0.1600
     10 C10       -13.7896   -2.2271   59.2773 C.2     1  ZINC000028372981    0.5200
     11 O11       -14.5057   -3.1080   59.7105 O.2     1  ZINC000028372981   -0.5000
     12 O12       -13.8708   -1.8694   57.9808 O.3     1  ZINC000028372981   -0.3200
     13 C13       -14.0546   -0.4574   57.6967 C.3     1  ZINC000028372981    0.0700
     14 H14       -13.5566    0.1354   58.4640 H       1  ZINC000028372981    0.1200
     15 C15       -15.5490   -0.1291   57.6884 C.3     1  ZINC000028372981   -0.1700
     16 C16       -13.4619   -0.1348   56.3492 C.2     1  ZINC000028372981    0.5200
     17 O17       -12.6734    0.7798   56.2368 O.2     1  ZINC000028372981   -0.4900
     18 N18       -13.8081   -0.8627   55.2689 N.am    1  ZINC000028372981   -0.6600
     19 C19       -13.2578   -0.5631   54.0179 C.ar    1  ZINC000028372981    0.1500
     20 C20       -14.0568   -0.0272   53.0166 C.ar    1  ZINC000028372981   -0.1300
     21 C21       -13.5104    0.2679   51.7827 C.ar    1  ZINC000028372981   -0.1000
     22 C22       -12.1692    0.0307   51.5444 C.ar    1  ZINC000028372981   -0.1300
     23 C23       -11.3706   -0.5025   52.5397 C.ar    1  ZINC000028372981   -0.0700
     24 C24        -9.9093   -0.7589   52.2757 C.3     1  ZINC000028372981   -0.1200
     25 C25       -11.9110   -0.8006   53.7750 C.ar    1  ZINC000028372981   -0.1200
     26 C26       -11.0404   -1.3825   54.8587 C.3     1  ZINC000028372981   -0.1200
     27 C27       -13.2697   -0.9764   61.3679 C.ar    1  ZINC000028372981   -0.0200
     28 C28       -12.3741   -0.3465   62.1977 C.ar    1  ZINC000028372981   -0.1800
     29 C29       -11.0197   -0.2722   61.8550 C.ar    1  ZINC000028372981    0.1900
     30 H30        -8.4311    2.2965   63.7417 H       1  ZINC000028372981    0.1000
     31 H31        -9.1557    2.0065   65.3414 H       1  ZINC000028372981    0.1000
     32 H32        -8.1345    0.7587   64.5874 H       1  ZINC000028372981    0.1000
     33 H33        -8.2984    1.1250   61.5502 H       1  ZINC000028372981    0.0900
     34 H34        -7.9979   -0.4207   62.4003 H       1  ZINC000028372981    0.0900
     35 H35        -8.8737   -0.0301   59.6514 H       1  ZINC000028372981    0.1000
     36 H36        -8.5713   -1.5763   60.5011 H       1  ZINC000028372981    0.1000
     37 H37       -11.1303   -1.9247   58.9080 H       1  ZINC000028372981    0.1400
     38 H38       -16.0470   -0.7219   56.9211 H       1  ZINC000028372981    0.0800
     39 H39       -15.9777   -0.3625   58.6631 H       1  ZINC000028372981    0.0800
     40 H40       -15.6870    0.9309   57.4752 H       1  ZINC000028372981    0.0800
     41 H41       -14.4388   -1.5941   55.3589 H       1  ZINC000028372981    0.4100
     42 H42       -15.1034    0.1628   53.2038 H       1  ZINC000028372981    0.1400
     43 H43       -14.1313    0.6848   51.0036 H       1  ZINC000028372981    0.1300
     44 H44       -11.7443    0.2627   50.5789 H       1  ZINC000028372981    0.1200
     45 H45        -9.3315    0.1271   52.5389 H       1  ZINC000028372981    0.0700
     46 H46        -9.5741   -1.6035   52.8777 H       1  ZINC000028372981    0.0700
     47 H47        -9.7653   -0.9859   51.2193 H       1  ZINC000028372981    0.0700
     48 H48       -10.6046   -0.5753   55.4474 H       1  ZINC000028372981    0.0700
     49 H49       -11.6429   -2.0198   55.5059 H       1  ZINC000028372981    0.0600
     50 H50       -10.2438   -1.9734   54.4066 H       1  ZINC000028372981    0.0800
     51 H51       -14.3132   -1.0291   61.6409 H       1  ZINC000028372981    0.1500
     52 H52       -12.7183    0.0950   63.1214 H       1  ZINC000028372981    0.1500
@<TRIPOS>BOND
     1     1     2    1
     2     1    30    1
     3     1    31    1
     4     1    32    1
     5     2     3    2
     6     2     4   am
     7     4    29    1
     8     4     5    1
     9     5     6    1
    10     5    33    1
    11     5    34    1
    12     6     7    1
    13     6    35    1
    14     6    36    1
    15     7    29   ar
    16     7     8   ar
    17     8     9   ar
    18     8    37    1
    19     9    10    1
    20     9    27   ar
    21    10    11    2
    22    10    12    1
    23    12    13    1
    24    13    14    1
    25    13    15    1
    26    13    16    1
    27    15    38    1
    28    15    39    1
    29    15    40    1
    30    16    17    2
    31    16    18   am
    32    18    19    1
    33    18    41    1
    34    19    25   ar
    35    19    20   ar
    36    20    21   ar
    37    20    42    1
    38    21    22   ar
    39    21    43    1
    40    22    23   ar
    41    22    44    1
    42    23    24    1
    43    23    25   ar
    44    24    45    1
    45    24    46    1
    46    24    47    1
    47    25    26    1
    48    26    48    1
    49    26    49    1
    50    26    50    1
    51    27    28   ar
    52    27    51    1
    53    28    29   ar
    54    28    52    1
@<TRIPOS>SUBSTRUCTURE
     1 ZINC000028372981        1 TEMP              0 ****  ****    0 ROOT


##########                                Name:    ZINC000652498551
##########                DOCK_Rotatable_Bonds:                   6
##########                         Heavy_Atoms:                  23
##########                    Molecular_Weight:             388.277
##########                DOCK_Rotatable_Bonds:                   6
##########                       Formal_Charge:          -0.0400001
##########                     HBond_Acceptors:                   5
##########                        HBond_Donors:                   1
##########                         Heavy_Atoms:                  23
##########                          Grid_Score:          -27.870659
##########                     Grid_vdw_energy:          -26.603758
##########                      Grid_es_energy:           -1.266901
##########           Internal_energy_repulsive:           20.332462

@<TRIPOS>MOLECULE
ZINC000652498551
 46 47 1 0 0
SMALL
USER_CHARGES


@<TRIPOS>ATOM
      1 C1          3.8384    0.0329   47.7576 C.3     1  ZINC000652498551   -0.1300
      2 C2          2.9938    1.0743   48.4946 C.3     1  ZINC000652498551   -0.1300
      3 C3          3.6364    1.3876   49.8472 C.3     1  ZINC000652498551   -0.1300
      4 C4          2.9180    2.3338   47.6706 C.2     1  ZINC000652498551    0.5000
      5 O5          2.8105    2.2636   46.4581 O.co2   1  ZINC000652498551   -0.7000
      6 O6          2.9643    3.4231   48.2164 O.co2   1  ZINC000652498551   -0.6700
      7 C7          1.5835    0.5237   48.7152 C.3     1  ZINC000652498551   -0.0600
      8 H8          1.5658   -0.0782   49.6238 H       1  ZINC000652498551    0.0700
      9 C9          1.1802   -0.3437   47.5193 C.3     1  ZINC000652498551   -0.1500
     10 C10        -0.2605   -0.8255   47.7134 C.3     1  ZINC000652498551   -0.1400
     11 C11        -1.1787    0.3862   47.8867 C.3     1  ZINC000652498551   -0.0100
     12 N12        -0.7575    1.1598   49.0609 N.4     1  ZINC000652498551   -0.3800
     13 H13        -0.7638    0.5638   49.8750 H       1  ZINC000652498551    0.4200
     14 C14        -1.6870    2.2784   49.2676 C.3     1  ZINC000652498551    0.0000
     15 C15        -2.9962    1.7511   49.8584 C.3     1  ZINC000652498551    0.0200
     16 O16        -4.0979    2.4478   49.2726 O.3     1  ZINC000652498551   -0.3100
     17 C17        -5.2852    2.3894   49.9311 C.ar    1  ZINC000652498551    0.1600
     18 C18        -5.6981    1.2007   50.5138 C.ar    1  ZINC000652498551   -0.2300
     19 C19        -6.9077    1.1435   51.1839 C.ar    1  ZINC000652498551    0.1500
     20 F20        -7.3109   -0.0141   51.7519 F       1  ZINC000652498551   -0.1200
     21 C21        -7.7044    2.2724   51.2724 C.ar    1  ZINC000652498551   -0.1600
     22 C22        -7.2934    3.4584   50.6909 C.ar    1  ZINC000652498551   -0.0300
     23 Br23       -8.3838    4.9984   50.8139 Br      1  ZINC000652498551   -0.0100
     24 C24        -6.0831    3.5206   50.0259 C.ar    1  ZINC000652498551   -0.1300
     25 C25         0.5971    1.6854   48.8526 C.3     1  ZINC000652498551   -0.0200
     26 H26         3.8932   -0.8781   48.3536 H       1  ZINC000652498551    0.0400
     27 H27         3.3806   -0.1903   46.7940 H       1  ZINC000652498551    0.0500
     28 H28         4.8431    0.4252   47.6004 H       1  ZINC000652498551    0.0600
     29 H29         4.6411    1.7800   49.6900 H       1  ZINC000652498551    0.0700
     30 H30         3.0347    2.1297   50.3721 H       1  ZINC000652498551    0.0400
     31 H31         3.6912    0.4766   50.4432 H       1  ZINC000652498551    0.0500
     32 H32         1.2479    0.2437   46.6037 H       1  ZINC000652498551    0.1300
     33 H33         1.8463   -1.2039   47.4520 H       1  ZINC000652498551    0.0800
     34 H34        -0.5736   -1.3976   46.8401 H       1  ZINC000652498551    0.1000
     35 H35        -0.3171   -1.4552   48.6013 H       1  ZINC000652498551    0.0700
     36 H36        -1.1214    1.0150   46.9983 H       1  ZINC000652498551    0.1300
     37 H37        -2.2052    0.0467   48.0249 H       1  ZINC000652498551    0.1100
     38 H38        -1.2423    2.9981   49.9547 H       1  ZINC000652498551    0.1400
     39 H39        -1.8889    2.7643   48.3130 H       1  ZINC000652498551    0.1500
     40 H40        -3.0868    0.6855   49.6477 H       1  ZINC000652498551    0.1100
     41 H41        -2.9981    1.9097   50.9368 H       1  ZINC000652498551    0.0900
     42 H42        -5.0765    0.3203   50.4445 H       1  ZINC000652498551    0.1500
     43 H43        -8.6479    2.2269   51.7959 H       1  ZINC000652498551    0.1500
     44 H44        -5.7629    4.4470   49.5726 H       1  ZINC000652498551    0.1500
     45 H45         0.8807    2.3049   49.7033 H       1  ZINC000652498551    0.1100
     46 H46         0.6172    2.2866   47.9436 H       1  ZINC000652498551    0.1700
@<TRIPOS>BOND
     1     1     2    1
     2     1    26    1
     3     1    27    1
     4     1    28    1
     5     2     3    1
     6     2     4    1
     7     2     7    1
     8     3    29    1
     9     3    30    1
    10     3    31    1
    11     4     5   ar
    12     4     6   ar
    13     7     8    1
    14     7    25    1
    15     7     9    1
    16     9    10    1
    17     9    32    1
    18     9    33    1
    19    10    11    1
    20    10    34    1
    21    10    35    1
    22    11    12    1
    23    11    36    1
    24    11    37    1
    25    12    13    1
    26    12    14    1
    27    12    25    1
    28    14    15    1
    29    14    38    1
    30    14    39    1
    31    15    16    1
    32    15    40    1
    33    15    41    1
    34    16    17    1
    35    17    24   ar
    36    17    18   ar
    37    18    19   ar
    38    18    42    1
    39    19    20    1
    40    19    21   ar
    41    21    22   ar
    42    21    43    1
    43    22    23    1
    44    22    24   ar
    45    24    44    1
    46    25    45    1
    47    25    46    1
@<TRIPOS>SUBSTRUCTURE
     1 ZINC000652498551        1 TEMP              0 ****  ****    0 ROOT


##########                                Name:    ZINC000274225049
##########                DOCK_Rotatable_Bonds:                   6
##########                         Heavy_Atoms:                  25
##########                    Molecular_Weight:             380.895
##########                DOCK_Rotatable_Bonds:                   6
##########                       Formal_Charge:           0.0200006
##########                     HBond_Acceptors:                   7
##########                        HBond_Donors:                   2
##########                         Heavy_Atoms:                  25
##########                          Grid_Score:          -27.841570
##########                     Grid_vdw_energy:          -27.813101
##########                      Grid_es_energy:           -0.028469
##########           Internal_energy_repulsive:           17.097815

@<TRIPOS>MOLECULE
ZINC000274225049
 46 48 1 0 0
SMALL
USER_CHARGES


@<TRIPOS>ATOM
      1 C1         -1.2769   -0.5754   49.0002 C.3     1  ZINC000274225049   -0.1600
      2 C2         -1.0775    0.8653   48.5256 C.3     1  ZINC000274225049    0.2000
      3 H3         -1.8832    1.1382   47.8441 H       1  ZINC000274225049    0.1100
      4 N4          0.2079    0.9775   47.8318 N.am    1  ZINC000274225049   -0.7400
      5 C5          0.2585    0.8877   46.4880 C.2     1  ZINC000274225049    0.7100
      6 O6         -0.7629    0.7149   45.8515 O.2     1  ZINC000274225049   -0.5800
      7 N7          1.4412    0.9893   45.8499 N.am    1  ZINC000274225049   -0.7500
      8 C8          1.4960    0.8934   44.3891 C.3     1  ZINC000274225049    0.1500
      9 C9          1.7022    2.2877   43.7938 C.3     1  ZINC000274225049   -0.1000
     10 H10         1.7307    2.2282   42.7058 H       1  ZINC000274225049    0.1000
     11 C11         3.0119    2.8981   44.3228 C.3     1  ZINC000274225049   -0.1100
     12 C12         3.0257    4.4033   43.9895 C.3     1  ZINC000274225049   -0.5900
     13 S13         1.2645    4.8935   43.9280 S.o2    1  ZINC000274225049    2.3900
     14 O14         0.9744    5.7462   45.0270 O.2     1  ZINC000274225049   -0.9300
     15 O15         0.9358    5.3038   42.6078 O.2     1  ZINC000274225049   -0.9300
     16 C16         0.5577    3.2318   44.2441 C.3     1  ZINC000274225049   -0.5900
     17 C17        -1.0895    1.7919   49.7141 C.ar    1  ZINC000274225049   -0.0700
     18 C18        -2.3097    2.2383   50.2489 C.ar    1  ZINC000274225049   -0.0300
     19 C19        -3.5385    1.8377   49.6969 C.ar    1  ZINC000274225049   -0.1100
     20 C20        -4.7007    2.2898   50.2416 C.ar    1  ZINC000274225049   -0.1100
     21 C21        -4.6924    3.1463   51.3412 C.ar    1  ZINC000274225049   -0.1100
     22 C22        -3.5217    3.5552   51.9021 C.ar    1  ZINC000274225049   -0.1000
     23 C23        -2.3013    3.1091   51.3671 C.ar    1  ZINC000274225049   -0.0400
     24 C24        -1.0718    3.5094   51.9196 C.ar    1  ZINC000274225049   -0.0300
     25 Cl25       -1.0361    4.5749   53.2898 Cl      1  ZINC000274225049   -0.0600
     26 C26         0.0914    3.0559   51.3740 C.ar    1  ZINC000274225049   -0.1000
     27 C27         0.0819    2.1960   50.2781 C.ar    1  ZINC000274225049   -0.1000
     28 H28        -1.2683   -1.2456   48.1407 H       1  ZINC000274225049    0.0700
     29 H29        -0.4711   -0.8483   49.6818 H       1  ZINC000274225049    0.0700
     30 H30        -2.2333   -0.6589   49.5164 H       1  ZINC000274225049    0.0800
     31 H31         1.0226    1.1164   48.3396 H       1  ZINC000274225049    0.4000
     32 H32         2.2563    1.1258   46.3579 H       1  ZINC000274225049    0.4000
     33 H33         2.3248    0.2479   44.0982 H       1  ZINC000274225049    0.0800
     34 H34         0.5611    0.4741   44.0172 H       1  ZINC000274225049    0.0800
     35 H35         3.0700    2.7614   45.4026 H       1  ZINC000274225049    0.0900
     36 H36         3.8623    2.4096   43.8472 H       1  ZINC000274225049    0.0900
     37 H37         3.5462    4.9590   44.7695 H       1  ZINC000274225049    0.1400
     38 H38         3.4996    4.5725   43.0226 H       1  ZINC000274225049    0.1400
     39 H39        -0.3371    3.0712   43.6429 H       1  ZINC000274225049    0.1400
     40 H40         0.3418    3.0985   45.3042 H       1  ZINC000274225049    0.1400
     41 H41        -3.5603    1.1746   48.8446 H       1  ZINC000274225049    0.1300
     42 H42        -5.6437    1.9808   49.8153 H       1  ZINC000274225049    0.1300
     43 H43        -5.6289    3.4908   51.7542 H       1  ZINC000274225049    0.1300
     44 H44        -3.5307    4.2193   52.7538 H       1  ZINC000274225049    0.1300
     45 H45         1.0346    3.3649   51.7997 H       1  ZINC000274225049    0.1300
     46 H46         1.0180    1.8512   49.8646 H       1  ZINC000274225049    0.1300
@<TRIPOS>BOND
     1     1     2    1
     2     1    28    1
     3     1    29    1
     4     1    30    1
     5     2     3    1
     6     2     4    1
     7     2    17    1
     8     4     5   am
     9     4    31    1
    10     5     6    2
    11     5     7   am
    12     7     8    1
    13     7    32    1
    14     8     9    1
    15     8    33    1
    16     8    34    1
    17     9    10    1
    18     9    16    1
    19     9    11    1
    20    11    12    1
    21    11    35    1
    22    11    36    1
    23    12    13    1
    24    12    37    1
    25    12    38    1
    26    13    14    2
    27    13    15    2
    28    13    16    1
    29    16    39    1
    30    16    40    1
    31    17    27   ar
    32    17    18   ar
    33    18    23   ar
    34    18    19   ar
    35    19    20   ar
    36    19    41    1
    37    20    21   ar
    38    20    42    1
    39    21    22   ar
    40    21    43    1
    41    22    23   ar
    42    22    44    1
    43    23    24   ar
    44    24    25    1
    45    24    26   ar
    46    26    27   ar
    47    26    45    1
    48    27    46    1
@<TRIPOS>SUBSTRUCTURE
     1 ZINC000274225049        1 TEMP              0 ****  ****    0 ROOT


##########                                Name:    ZINC001345966764
##########                DOCK_Rotatable_Bonds:                  10
##########                         Heavy_Atoms:                  22
##########                    Molecular_Weight:             333.258
##########                DOCK_Rotatable_Bonds:                  10
##########                       Formal_Charge:           0.0099997
##########                     HBond_Acceptors:                  11
##########                        HBond_Donors:                   4
##########                         Heavy_Atoms:                  22
##########                          Grid_Score:          -27.817877
##########                     Grid_vdw_energy:          -28.221451
##########                      Grid_es_energy:            0.403574
##########           Internal_energy_repulsive:            3.951971

@<TRIPOS>MOLECULE
ZINC001345966764
 38 38 1 0 0
SMALL
USER_CHARGES


@<TRIPOS>ATOM
      1 N1        -12.9152    0.2444   52.8420 N.3     1  ZINC001345966764   -0.8400
      2 C2        -11.6823   -0.4449   52.4386 C.3     1  ZINC001345966764    0.0200
      3 C3        -10.5141    0.5428   52.4640 C.3     1  ZINC001345966764    0.2800
      4 F4        -10.7382    1.5544   51.5239 F       1  ZINC001345966764   -0.1900
      5 F5        -10.4081    1.1071   53.7399 F       1  ZINC001345966764   -0.1800
      6 C6         -9.2168   -0.1927   52.1222 C.3     1  ZINC001345966764    0.0800
      7 N7         -8.1278    0.7773   51.9825 N.am    1  ZINC001345966764   -0.7000
      8 C8         -6.9713    0.4119   51.3945 C.2     1  ZINC001345966764    0.5100
      9 O9         -6.8315   -0.7208   50.9824 O.2     1  ZINC001345966764   -0.5100
     10 C10        -5.8610    1.4019   51.2503 C.2     1  ZINC001345966764    0.5100
     11 O11        -5.9836    2.5212   51.7028 O.2     1  ZINC001345966764   -0.5100
     12 N12        -4.7238    1.0515   50.6177 N.am    1  ZINC001345966764   -0.7000
     13 C13        -3.6347    2.0214   50.4778 C.3     1  ZINC001345966764    0.1200
     14 C14        -2.8438    1.7200   49.2033 C.3     1  ZINC001345966764    0.0600
     15 H15        -3.4985    1.7605   48.3328 H       1  ZINC001345966764    0.0900
     16 C16        -1.6768    2.7198   49.0455 C.3     1  ZINC001345966764   -0.1400
     17 C17        -0.5292    1.8677   48.4586 C.3     1  ZINC001345966764   -0.1500
     18 C18        -1.1387    0.4540   48.3313 C.3     1  ZINC001345966764    0.0300
     19 H19        -1.5308    0.2989   47.3262 H       1  ZINC001345966764    0.1200
     20 C20        -0.0902   -0.6098   48.6628 C.3     1  ZINC001345966764    0.4600
     21 F21         0.4188   -0.3792   49.9454 F       1  ZINC001345966764   -0.1700
     22 F22        -0.6809   -1.8771   48.6165 F       1  ZINC001345966764   -0.1700
     23 F23         0.9502   -0.5460   47.7297 F       1  ZINC001345966764   -0.1700
     24 O24        -2.2126    0.4244   49.2979 O.3     1  ZINC001345966764   -0.3500
     25 H25       -13.1520    0.9746   52.1873 H       1  ZINC001345966764    0.3500
     26 H26       -13.6771   -0.4088   52.9464 H       1  ZINC001345966764    0.3600
     27 H27       -11.4810   -1.2635   53.1297 H       1  ZINC001345966764    0.1100
     28 H28       -11.8009   -0.8415   51.4303 H       1  ZINC001345966764    0.0700
     29 H29        -8.9769   -0.8959   52.9197 H       1  ZINC001345966764    0.1100
     30 H30        -9.3427   -0.7351   51.1852 H       1  ZINC001345966764    0.1100
     31 H31        -8.2390    1.6824   52.3130 H       1  ZINC001345966764    0.4200
     32 H32        -4.6263    0.1573   50.2550 H       1  ZINC001345966764    0.4200
     33 H33        -4.0497    3.0277   50.4185 H       1  ZINC001345966764    0.1000
     34 H34        -2.9729    1.9516   51.3412 H       1  ZINC001345966764    0.0900
     35 H35        -1.9494    3.5195   48.3568 H       1  ZINC001345966764    0.0900
     36 H36        -1.3912    3.1296   50.0143 H       1  ZINC001345966764    0.0900
     37 H37        -0.2345    2.2462   47.4798 H       1  ZINC001345966764    0.1000
     38 H38         0.3236    1.8563   49.1373 H       1  ZINC001345966764    0.0900
@<TRIPOS>BOND
     1     1     2    1
     2     1    25    1
     3     1    26    1
     4     2     3    1
     5     2    27    1
     6     2    28    1
     7     3     4    1
     8     3     5    1
     9     3     6    1
    10     6     7    1
    11     6    29    1
    12     6    30    1
    13     7     8   am
    14     7    31    1
    15     8     9    2
    16     8    10    1
    17    10    11    2
    18    10    12   am
    19    12    13    1
    20    12    32    1
    21    13    14    1
    22    13    33    1
    23    13    34    1
    24    14    15    1
    25    14    24    1
    26    14    16    1
    27    16    17    1
    28    16    35    1
    29    16    36    1
    30    17    18    1
    31    17    37    1
    32    17    38    1
    33    18    19    1
    34    18    20    1
    35    18    24    1
    36    20    21    1
    37    20    22    1
    38    20    23    1
@<TRIPOS>SUBSTRUCTURE
     1 ZINC001345966764        1 TEMP              0 ****  ****    0 ROOT


##########                                Name:    ZINC000098105561
##########                DOCK_Rotatable_Bonds:                   5
##########                         Heavy_Atoms:                  25
##########                    Molecular_Weight:             368.336
##########                DOCK_Rotatable_Bonds:                   5
##########                       Formal_Charge:         2.98023e-08
##########                     HBond_Acceptors:                   9
##########                        HBond_Donors:                   0
##########                         Heavy_Atoms:                  25
##########                          Grid_Score:          -27.729826
##########                     Grid_vdw_energy:          -26.386103
##########                      Grid_es_energy:           -1.343723
##########           Internal_energy_repulsive:            8.850961

@<TRIPOS>MOLECULE
ZINC000098105561
 36 38 1 0 0
SMALL
USER_CHARGES


@<TRIPOS>ATOM
      1 C1        -11.8462    0.9850   55.8771 C.3     1  ZINC000098105561   -0.0800
      2 C2        -12.0813   -0.4499   56.2727 C.2     1  ZINC000098105561    0.0900
      3 C3        -11.5427   -1.4779   55.6127 C.2     1  ZINC000098105561   -0.2700
      4 S4        -12.0666   -2.9656   56.3976 S.3     1  ZINC000098105561    0.1600
      5 C5        -12.9610   -2.0603   57.5393 C.2     1  ZINC000098105561    0.2500
      6 N6        -13.7114   -2.6038   58.5728 N.am    1  ZINC000098105561   -0.5200
      7 C7        -15.0123   -3.2153   58.2905 C.3     1  ZINC000098105561    0.0500
      8 C8        -16.0453   -2.1179   58.0270 C.3     1  ZINC000098105561    0.4400
      9 F9        -15.8175   -1.0447   58.8953 F       1  ZINC000098105561   -0.1700
     10 F10       -15.9321   -1.6789   56.7035 F       1  ZINC000098105561   -0.1700
     11 F11       -17.3308   -2.6263   58.2413 F       1  ZINC000098105561   -0.1700
     12 C12       -13.2431   -2.5688   59.8362 C.2     1  ZINC000098105561    0.5800
     13 O13       -13.9000   -3.0446   60.7410 O.2     1  ZINC000098105561   -0.4100
     14 C14       -11.9279   -1.9505   60.1217 C.2     1  ZINC000098105561    0.0800
     15 C15       -10.8111   -2.5461   59.6355 C.2     1  ZINC000098105561   -0.2000
     16 C16        -9.5067   -1.9333   59.9385 C.2     1  ZINC000098105561    0.4200
     17 O17        -8.4865   -2.2686   59.3629 O.2     1  ZINC000098105561   -0.4300
     18 C18        -9.5090   -0.8877   60.9815 C.ar    1  ZINC000098105561   -0.2200
     19 C19        -8.3240   -0.4136   61.5400 C.ar    1  ZINC000098105561   -0.0300
     20 C20        -8.3749    0.5588   62.5151 C.ar    1  ZINC000098105561   -0.1400
     21 C21        -9.5975    1.0609   62.9377 C.ar    1  ZINC000098105561   -0.0500
     22 C22       -10.7763    0.6014   62.3911 C.ar    1  ZINC000098105561   -0.1400
     23 C23       -10.7495   -0.3770   61.4028 C.ar    1  ZINC000098105561    0.1400
     24 O24       -11.8924   -0.8230   60.8449 O.3     1  ZINC000098105561   -0.2300
     25 N25       -12.8318   -0.7919   57.3026 N.2     1  ZINC000098105561   -0.4600
     26 H26       -10.9650    1.3647   56.3942 H       1  ZINC000098105561    0.0800
     27 H27       -11.6890    1.0440   54.8001 H       1  ZINC000098105561    0.0800
     28 H28       -12.7145    1.5844   56.1509 H       1  ZINC000098105561    0.0800
     29 H29       -10.8987   -1.4094   54.7485 H       1  ZINC000098105561    0.1900
     30 H30       -14.9299   -3.8552   57.4119 H       1  ZINC000098105561    0.1700
     31 H31       -15.3267   -3.8122   59.1466 H       1  ZINC000098105561    0.1400
     32 H32       -10.8762   -3.4461   59.0421 H       1  ZINC000098105561    0.1800
     33 H33        -7.3727   -0.8054   61.2116 H       1  ZINC000098105561    0.1400
     34 H34        -7.4601    0.9311   62.9522 H       1  ZINC000098105561    0.1400
     35 H35        -9.6258    1.8207   63.7047 H       1  ZINC000098105561    0.1400
     36 H36       -11.7207    1.0012   62.7298 H       1  ZINC000098105561    0.1400
@<TRIPOS>BOND
     1     1     2    1
     2     1    26    1
     3     1    27    1
     4     1    28    1
     5     2    25    1
     6     2     3    2
     7     3     4    1
     8     3    29    1
     9     4     5    1
    10     5     6    1
    11     5    25    2
    12     6     7    1
    13     6    12   am
    14     7     8    1
    15     7    30    1
    16     7    31    1
    17     8     9    1
    18     8    10    1
    19     8    11    1
    20    12    13    2
    21    12    14    1
    22    14    24    1
    23    14    15    2
    24    15    16    1
    25    15    32    1
    26    16    17    2
    27    16    18    1
    28    18    23   ar
    29    18    19   ar
    30    19    20   ar
    31    19    33    1
    32    20    21   ar
    33    20    34    1
    34    21    22   ar
    35    21    35    1
    36    22    23   ar
    37    22    36    1
    38    23    24    1
@<TRIPOS>SUBSTRUCTURE
     1 ZINC000098105561        1 TEMP              0 ****  ****    0 ROOT


##########                                Name:    ZINC000450219577
##########                DOCK_Rotatable_Bonds:                   8
##########                         Heavy_Atoms:                  26
##########                    Molecular_Weight:             353.421
##########                DOCK_Rotatable_Bonds:                   8
##########                       Formal_Charge:          -0.0199997
##########                     HBond_Acceptors:                   6
##########                        HBond_Donors:                   1
##########                         Heavy_Atoms:                  26
##########                          Grid_Score:          -27.701689
##########                     Grid_vdw_energy:          -27.952358
##########                      Grid_es_energy:            0.250669
##########           Internal_energy_repulsive:           16.055714

@<TRIPOS>MOLECULE
ZINC000450219577
 49 51 1 0 0
SMALL
USER_CHARGES


@<TRIPOS>ATOM
      1 C1          2.1719   -0.8406   47.9860 C.3     1  ZINC000450219577   -0.1800
      2 C2          0.7622   -0.2459   47.9936 C.3     1  ZINC000450219577    0.1200
      3 C3          0.1367   -0.3988   46.6057 C.3     1  ZINC000450219577   -0.1800
      4 C4         -0.0964   -0.9822   49.0239 C.3     1  ZINC000450219577   -0.1400
      5 O5          0.8329    1.1623   48.3401 O.3     1  ZINC000450219577   -0.3400
      6 C6         -0.2753    1.7202   48.8525 C.2     1  ZINC000450219577    0.4700
      7 O7         -0.4942    1.6492   50.0386 O.2     1  ZINC000450219577   -0.5000
      8 C8         -1.2461    2.4351   47.9484 C.3     1  ZINC000450219577    0.2000
      9 H9         -1.6738    1.7250   47.2406 H       1  ZINC000450219577    0.1400
     10 N10        -2.3174    3.0275   48.7532 N.am    1  ZINC000450219577   -0.7100
     11 C11        -3.2760    2.2418   49.2825 C.2     1  ZINC000450219577    0.5800
     12 O12        -3.2525    1.0416   49.0908 O.2     1  ZINC000450219577   -0.5200
     13 C13        -4.3559    2.8393   50.0961 C.ar    1  ZINC000450219577   -0.2500
     14 C14        -5.4945    3.3842   49.4918 C.ar    1  ZINC000450219577    0.1900
     15 N15        -6.4358    3.9078   50.2574 N.ar    1  ZINC000450219577   -0.5100
     16 C16        -6.3132    3.9213   51.5702 C.ar    1  ZINC000450219577    0.3800
     17 C17        -7.4143    4.5299   52.3996 C.3     1  ZINC000450219577   -0.1100
     18 C18        -8.8462    4.4022   51.8758 C.3     1  ZINC000450219577   -0.1500
     19 C19        -8.3959    3.5745   53.0812 C.3     1  ZINC000450219577   -0.1500
     20 N20        -5.2578    3.4185   52.1806 N.ar    1  ZINC000450219577   -0.5200
     21 C21        -4.2714    2.8708   51.4926 C.ar    1  ZINC000450219577    0.2200
     22 C22        -0.5239    3.5223   47.1951 C.ar    1  ZINC000450219577   -0.1100
     23 C23        -0.1889    3.3375   45.8667 C.ar    1  ZINC000450219577   -0.1000
     24 C24         0.4734    4.3348   45.1758 C.ar    1  ZINC000450219577   -0.1200
     25 C25         0.8005    5.5171   45.8130 C.ar    1  ZINC000450219577   -0.1100
     26 C26         0.4648    5.7023   47.1411 C.ar    1  ZINC000450219577   -0.1200
     27 C27        -0.2014    4.7067   47.8309 C.ar    1  ZINC000450219577   -0.0800
     28 H28         2.7836   -0.3161   47.2519 H       1  ZINC000450219577    0.0800
     29 H29         2.6174   -0.7317   48.9747 H       1  ZINC000450219577    0.0600
     30 H30         2.1188   -1.8978   47.7258 H       1  ZINC000450219577    0.0700
     31 H31         0.0836   -1.4559   46.3455 H       1  ZINC000450219577    0.0700
     32 H32        -0.8677    0.0248   46.6111 H       1  ZINC000450219577    0.0600
     33 H33         0.7484    0.1258   45.8716 H       1  ZINC000450219577    0.0800
     34 H34         0.3492   -0.8733   50.0127 H       1  ZINC000450219577    0.0700
     35 H35        -1.1006   -0.5585   49.0293 H       1  ZINC000450219577    0.0700
     36 H36        -0.1495   -2.0394   48.7637 H       1  ZINC000450219577    0.0800
     37 H37        -2.3368    3.9853   48.9053 H       1  ZINC000450219577    0.4100
     38 H38        -5.6019    3.3774   48.4172 H       1  ZINC000450219577    0.1700
     39 H39        -7.1521    5.4451   52.9305 H       1  ZINC000450219577    0.1300
     40 H40        -9.5263    5.2335   52.0619 H       1  ZINC000450219577    0.1000
     41 H41        -8.9917    3.8779   50.9313 H       1  ZINC000450219577    0.1100
     42 H42        -8.2452    2.5056   52.9297 H       1  ZINC000450219577    0.1000
     43 H43        -8.7797    3.8612   54.0603 H       1  ZINC000450219577    0.1100
     44 H44        -3.4102    2.4612   51.9996 H       1  ZINC000450219577    0.1800
     45 H45        -0.4446    2.4138   45.3688 H       1  ZINC000450219577    0.1200
     46 H46         0.7357    4.1901   44.1382 H       1  ZINC000450219577    0.1200
     47 H47         1.3187    6.2960   45.2733 H       1  ZINC000450219577    0.1300
     48 H48         0.7206    6.6258   47.6390 H       1  ZINC000450219577    0.1300
     49 H49        -0.4637    4.8513   48.8685 H       1  ZINC000450219577    0.1300
@<TRIPOS>BOND
     1     1     2    1
     2     1    28    1
     3     1    29    1
     4     1    30    1
     5     2     3    1
     6     2     4    1
     7     2     5    1
     8     3    31    1
     9     3    32    1
    10     3    33    1
    11     4    34    1
    12     4    35    1
    13     4    36    1
    14     5     6    1
    15     6     7    2
    16     6     8    1
    17     8     9    1
    18     8    10    1
    19     8    22    1
    20    10    11   am
    21    10    37    1
    22    11    12    2
    23    11    13    1
    24    13    21   ar
    25    13    14   ar
    26    14    15   ar
    27    14    38    1
    28    15    16   ar
    29    16    17    1
    30    16    20   ar
    31    17    19    1
    32    17    18    1
    33    17    39    1
    34    18    19    1
    35    18    40    1
    36    18    41    1
    37    19    42    1
    38    19    43    1
    39    20    21   ar
    40    21    44    1
    41    22    27   ar
    42    22    23   ar
    43    23    24   ar
    44    23    45    1
    45    24    25   ar
    46    24    46    1
    47    25    26   ar
    48    25    47    1
    49    26    27   ar
    50    26    48    1
    51    27    49    1
@<TRIPOS>SUBSTRUCTURE
     1 ZINC000450219577        1 TEMP              0 ****  ****    0 ROOT


##########                                Name:    ZINC000089894387
##########                DOCK_Rotatable_Bonds:                   8
##########                         Heavy_Atoms:                  22
##########                    Molecular_Weight:             326.823
##########                DOCK_Rotatable_Bonds:                   8
##########                       Formal_Charge:          -0.0300003
##########                     HBond_Acceptors:                   6
##########                        HBond_Donors:                   2
##########                         Heavy_Atoms:                  22
##########                          Grid_Score:          -27.632818
##########                     Grid_vdw_energy:          -28.003635
##########                      Grid_es_energy:            0.370817
##########           Internal_energy_repulsive:           12.508104

@<TRIPOS>MOLECULE
ZINC000089894387
 45 46 1 0 0
SMALL
USER_CHARGES


@<TRIPOS>ATOM
      1 C1         -8.3090    3.0823   54.8684 C.3     1  ZINC000089894387   -0.1700
      2 C2         -8.5354    2.4242   53.5057 C.3     1  ZINC000089894387    0.1700
      3 H3         -8.8233    3.1837   52.7788 H       1  ZINC000089894387    0.0900
      4 N4         -7.2992    1.7720   53.0671 N.am    1  ZINC000089894387   -0.7400
      5 C5         -6.3944    2.4603   52.3433 C.2     1  ZINC000089894387    0.7100
      6 O6         -6.6047    3.6221   52.0531 O.2     1  ZINC000089894387   -0.5900
      7 N7         -5.2563    1.8607   51.9410 N.am    1  ZINC000089894387   -0.7500
      8 C8         -4.2719    2.6094   51.1557 C.3     1  ZINC000089894387    0.1400
      9 C9         -4.5230    2.3738   49.6650 C.3     1  ZINC000089894387    0.0500
     10 O10        -3.3637    2.7536   48.9208 O.3     1  ZINC000089894387   -0.3100
     11 C11        -2.5803    1.7504   48.4446 C.ar    1  ZINC000089894387    0.1400
     12 C12        -2.2917    0.6547   49.2449 C.ar    1  ZINC000089894387   -0.2100
     13 C13        -1.4950   -0.3642   48.7591 C.ar    1  ZINC000089894387   -0.0700
     14 C14        -0.9852   -0.2931   47.4762 C.ar    1  ZINC000089894387   -0.1500
     15 C15        -1.2710    0.7991   46.6753 C.ar    1  ZINC000089894387    0.0000
     16 Cl16       -0.6292    0.8854   45.0646 Cl      1  ZINC000089894387   -0.0600
     17 C17        -2.0727    1.8179   47.1552 C.ar    1  ZINC000089894387   -0.1500
     18 C18        -9.6489    1.3814   53.6217 C.3     1  ZINC000089894387   -0.1000
     19 C19       -10.9937    2.0874   53.8194 C.3     1  ZINC000089894387   -0.1600
     20 C20       -12.1104    1.0407   53.8554 C.3     1  ZINC000089894387    0.0600
     21 O21       -12.0882    0.2805   52.6456 O.3     1  ZINC000089894387   -0.3800
     22 C22       -10.8725   -0.4393   52.4310 C.3     1  ZINC000089894387    0.0600
     23 C23        -9.7061    0.5479   52.3377 C.3     1  ZINC000089894387   -0.1500
     24 H24        -8.0213    2.3228   55.5953 H       1  ZINC000089894387    0.0600
     25 H25        -7.5159    3.8252   54.7857 H       1  ZINC000089894387    0.0600
     26 H26        -9.2289    3.5676   55.1948 H       1  ZINC000089894387    0.0700
     27 H27        -7.1319    0.8447   53.2975 H       1  ZINC000089894387    0.3900
     28 H28        -5.0890    0.9334   52.1715 H       1  ZINC000089894387    0.4000
     29 H29        -4.3642    3.6728   51.3761 H       1  ZINC000089894387    0.0800
     30 H30        -3.2683    2.2706   51.4130 H       1  ZINC000089894387    0.0900
     31 H31        -4.7345    1.3181   49.4944 H       1  ZINC000089894387    0.0900
     32 H32        -5.3747    2.9719   49.3409 H       1  ZINC000089894387    0.0700
     33 H33        -2.6892    0.5984   50.2475 H       1  ZINC000089894387    0.1300
     34 H34        -1.2700   -1.2169   49.3823 H       1  ZINC000089894387    0.1400
     35 H35        -0.3626   -1.0905   47.0983 H       1  ZINC000089894387    0.1400
     36 H36        -2.2961    2.6699   46.5301 H       1  ZINC000089894387    0.1400
     37 H37        -9.4498    0.7285   54.4716 H       1  ZINC000089894387    0.0800
     38 H38       -10.9809    2.6389   54.7595 H       1  ZINC000089894387    0.0700
     39 H39       -11.1678    2.7773   52.9937 H       1  ZINC000089894387    0.0800
     40 H40       -11.9579    0.3756   54.7054 H       1  ZINC000089894387    0.0500
     41 H41       -13.0741    1.5405   53.9531 H       1  ZINC000089894387    0.0900
     42 H42       -10.7038   -1.1238   53.2624 H       1  ZINC000089894387    0.0500
     43 H43       -10.9444   -1.0057   51.5026 H       1  ZINC000089894387    0.1000
     44 H44        -9.8541    1.2068   51.4821 H       1  ZINC000089894387    0.0800
     45 H45        -8.7724   -0.0016   52.2182 H       1  ZINC000089894387    0.0800
@<TRIPOS>BOND
     1     1     2    1
     2     1    24    1
     3     1    25    1
     4     1    26    1
     5     2     3    1
     6     2     4    1
     7     2    18    1
     8     4     5   am
     9     4    27    1
    10     5     6    2
    11     5     7   am
    12     7     8    1
    13     7    28    1
    14     8     9    1
    15     8    29    1
    16     8    30    1
    17     9    10    1
    18     9    31    1
    19     9    32    1
    20    10    11    1
    21    11    17   ar
    22    11    12   ar
    23    12    13   ar
    24    12    33    1
    25    13    14   ar
    26    13    34    1
    27    14    15   ar
    28    14    35    1
    29    15    16    1
    30    15    17   ar
    31    17    36    1
    32    18    23    1
    33    18    19    1
    34    18    37    1
    35    19    20    1
    36    19    38    1
    37    19    39    1
    38    20    21    1
    39    20    40    1
    40    20    41    1
    41    21    22    1
    42    22    23    1
    43    22    42    1
    44    22    43    1
    45    23    44    1
    46    23    45    1
@<TRIPOS>SUBSTRUCTURE
     1 ZINC000089894387        1 TEMP              0 ****  ****    0 ROOT


##########                                Name:    ZINC000002873519
##########                DOCK_Rotatable_Bonds:                   5
##########                         Heavy_Atoms:                  25
##########                    Molecular_Weight:             375.207
##########                DOCK_Rotatable_Bonds:                   5
##########                       Formal_Charge:               -0.02
##########                     HBond_Acceptors:                   6
##########                        HBond_Donors:                   0
##########                         Heavy_Atoms:                  25
##########                          Grid_Score:          -27.604824
##########                     Grid_vdw_energy:          -26.748854
##########                      Grid_es_energy:           -0.855970
##########           Internal_energy_repulsive:            9.027061

@<TRIPOS>MOLECULE
ZINC000002873519
 37 39 1 0 0
SMALL
USER_CHARGES


@<TRIPOS>ATOM
      1 C1         -0.7296   -1.5338   49.1712 C.3     1  ZINC000002873519   -0.1500
      2 C2         -0.5939   -0.5931   48.0017 C.2     1  ZINC000002873519    0.4500
      3 O3          0.0635   -0.9151   47.0404 O.2     1  ZINC000002873519   -0.4800
      4 O4         -1.2038    0.6030   48.0279 O.3     1  ZINC000002873519   -0.2900
      5 C5         -0.7310    1.5545   47.1833 C.ar    1  ZINC000002873519    0.1200
      6 C6         -0.9953    1.4737   45.8262 C.ar    1  ZINC000002873519   -0.1100
      7 C7         -0.5142    2.4430   44.9663 C.ar    1  ZINC000002873519   -0.0800
      8 C8          0.2362    3.5038   45.4513 C.ar    1  ZINC000002873519   -0.0400
      9 Cl9         0.8318    4.7122   44.3565 Cl      1  ZINC000002873519   -0.0500
     10 C10         0.5109    3.6033   46.7982 C.ar    1  ZINC000002873519   -0.0800
     11 C11         0.0251    2.6307   47.6828 C.ar    1  ZINC000002873519   -0.0700
     12 C12         0.3112    2.7282   49.1148 C.2     1  ZINC000002873519    0.0400
     13 C13        -0.7254    2.8490   50.0195 C.2     1  ZINC000002873519   -0.1900
     14 C14        -2.1707    2.8908   49.7376 C.2     1  ZINC000002873519   -0.2000
     15 C15        -2.7897    3.0165   50.9303 C.2     1  ZINC000002873519    0.1200
     16 C16        -4.2536    3.0962   51.1051 C.ar    1  ZINC000002873519   -0.0400
     17 C17        -5.0972    3.0305   49.9938 C.ar    1  ZINC000002873519   -0.0800
     18 C18        -6.4636    3.1056   50.1637 C.ar    1  ZINC000002873519   -0.1100
     19 C19        -6.9999    3.2463   51.4329 C.ar    1  ZINC000002873519   -0.0200
     20 Cl20       -8.7211    3.3400   51.6383 Cl      1  ZINC000002873519   -0.0600
     21 C21        -6.1689    3.3120   52.5388 C.ar    1  ZINC000002873519   -0.1100
     22 C22        -4.8010    3.2318   52.3830 C.ar    1  ZINC000002873519   -0.0800
     23 O23        -1.8994    3.0594   51.9417 O.3     1  ZINC000002873519   -0.2600
     24 C24        -0.6370    2.9589   51.4880 C.2     1  ZINC000002873519    0.5200
     25 O25         0.3792    2.9661   52.1572 O.2     1  ZINC000002873519   -0.4200
     26 H26         0.0724   -1.3445   49.8846 H       1  ZINC000002873519    0.1100
     27 H27        -1.6926   -1.3741   49.6562 H       1  ZINC000002873519    0.1000
     28 H28        -0.6667   -2.5633   48.8186 H       1  ZINC000002873519    0.1100
     29 H29        -1.5784    0.6513   45.4389 H       1  ZINC000002873519    0.1500
     30 H30        -0.7238    2.3736   43.9092 H       1  ZINC000002873519    0.1500
     31 H31         1.0960    4.4308   47.1716 H       1  ZINC000002873519    0.1500
     32 H32         1.3329    2.7056   49.4641 H       1  ZINC000002873519    0.1500
     33 H33        -2.6421    2.8330   48.7677 H       1  ZINC000002873519    0.1700
     34 H34        -4.6801    2.9215   49.0034 H       1  ZINC000002873519    0.1400
     35 H35        -7.1170    3.0549   49.3052 H       1  ZINC000002873519    0.1400
     36 H36        -6.5932    3.4221   53.5259 H       1  ZINC000002873519    0.1400
     37 H37        -4.1540    3.2832   53.2462 H       1  ZINC000002873519    0.1400
@<TRIPOS>BOND
     1     1     2    1
     2     1    26    1
     3     1    27    1
     4     1    28    1
     5     2     3    2
     6     2     4    1
     7     4     5    1
     8     5    11   ar
     9     5     6   ar
    10     6     7   ar
    11     6    29    1
    12     7     8   ar
    13     7    30    1
    14     8     9    1
    15     8    10   ar
    16    10    11   ar
    17    10    31    1
    18    11    12    1
    19    12    13    2
    20    12    32    1
    21    13    24    1
    22    13    14    1
    23    14    15    2
    24    14    33    1
    25    15    16    1
    26    15    23    1
    27    16    22   ar
    28    16    17   ar
    29    17    18   ar
    30    17    34    1
    31    18    19   ar
    32    18    35    1
    33    19    20    1
    34    19    21   ar
    35    21    22   ar
    36    21    36    1
    37    22    37    1
    38    23    24    1
    39    24    25    2
@<TRIPOS>SUBSTRUCTURE
     1 ZINC000002873519        1 TEMP              0 ****  ****    0 ROOT


##########                                Name:    ZINC000971513996
##########                DOCK_Rotatable_Bonds:                   6
##########                         Heavy_Atoms:                  27
##########                    Molecular_Weight:             369.464
##########                DOCK_Rotatable_Bonds:                   6
##########                       Formal_Charge:          -0.0300002
##########                     HBond_Acceptors:                   6
##########                        HBond_Donors:                   1
##########                         Heavy_Atoms:                  27
##########                          Grid_Score:          -27.576250
##########                     Grid_vdw_energy:          -26.439144
##########                      Grid_es_energy:           -1.137105
##########           Internal_energy_repulsive:           30.542082

@<TRIPOS>MOLECULE
ZINC000971513996
 54 57 1 0 0
SMALL
USER_CHARGES


@<TRIPOS>ATOM
      1 C1          0.5400    5.4423   45.5798 C.3     1  ZINC000971513996   -0.1600
      2 C2          1.4695    4.6699   46.5182 C.3     1  ZINC000971513996   -0.1400
      3 C3          1.0508    3.1987   46.5535 C.3     1  ZINC000971513996    0.0800
      4 H4          0.0250    3.1215   46.9137 H       1  ZINC000971513996    0.0800
      5 O5          1.1366    2.6473   45.2380 O.3     1  ZINC000971513996   -0.3600
      6 C6          2.4470    2.6993   44.6703 C.3     1  ZINC000971513996    0.0200
      7 C7          1.9663    2.4380   47.4777 C.2     1  ZINC000971513996    0.5400
      8 O8          2.8392    3.0229   48.0834 O.2     1  ZINC000971513996   -0.5100
      9 N9          1.8150    1.1076   47.6313 N.am    1  ZINC000971513996   -0.6400
     10 C10         2.4714    0.0391   48.4039 C.3     1  ZINC000971513996    0.1000
     11 C11         1.1202   -0.7014   48.4051 C.3     1  ZINC000971513996   -0.1200
     12 H12         1.1868   -1.7833   48.2902 H       1  ZINC000971513996    0.1100
     13 C13         0.2408   -0.2566   49.5763 C.3     1  ZINC000971513996   -0.1200
     14 C14        -1.2187   -0.1963   49.1161 C.3     1  ZINC000971513996    0.1100
     15 N15        -1.3073    0.7394   47.9920 N.am    1  ZINC000971513996   -0.6000
     16 C16        -2.1503    1.7888   48.0604 C.2     1  ZINC000971513996    0.5900
     17 O17        -2.2277    2.5684   47.1299 O.2     1  ZINC000971513996   -0.5200
     18 C18        -2.9767    1.9911   49.2599 C.2     1  ZINC000971513996    0.0200
     19 C19        -2.7679    2.9405   50.2091 C.2     1  ZINC000971513996   -0.1000
     20 C20        -3.7795    2.7996   51.1898 C.ar    1  ZINC000971513996   -0.1100
     21 C21        -4.0701    3.4829   52.3773 C.ar    1  ZINC000971513996   -0.0600
     22 C22        -5.1424    3.1060   53.1325 C.ar    1  ZINC000971513996   -0.1200
     23 C23        -5.4522    3.8435   54.4097 C.3     1  ZINC000971513996   -0.1100
     24 C24        -5.9514    2.0494   52.7346 C.ar    1  ZINC000971513996   -0.0800
     25 C25        -5.6865    1.3618   51.5712 C.ar    1  ZINC000971513996   -0.1300
     26 C26        -4.5982    1.7271   50.7842 C.ar    1  ZINC000971513996    0.1100
     27 N27        -4.0926    1.2501   49.5979 N.pl3   1  ZINC000971513996   -0.5800
     28 C28        -0.4910    0.5446   46.8009 C.3     1  ZINC000971513996    0.0700
     29 C29         0.9197    0.0721   47.1103 C.3     1  ZINC000971513996    0.1300
     30 H30         1.3601   -0.4424   46.2563 H       1  ZINC000971513996    0.1100
     31 H31         0.7712    6.5061   45.6340 H       1  ZINC000971513996    0.0600
     32 H32         0.6820    5.0913   44.5577 H       1  ZINC000971513996    0.0600
     33 H33        -0.4954    5.2798   45.8793 H       1  ZINC000971513996    0.0600
     34 H34         2.4954    4.7472   46.1579 H       1  ZINC000971513996    0.0800
     35 H35         1.4041    5.0905   47.5216 H       1  ZINC000971513996    0.0800
     36 H36         2.7348    3.7391   44.5152 H       1  ZINC000971513996    0.0400
     37 H37         3.1557    2.2233   45.3479 H       1  ZINC000971513996    0.0500
     38 H38         2.4499    2.1751   43.7146 H       1  ZINC000971513996    0.0900
     39 H39         3.2525   -0.4816   47.8499 H       1  ZINC000971513996    0.0900
     40 H40         2.7952    0.3552   49.3955 H       1  ZINC000971513996    0.0800
     41 H41         0.3354   -0.9706   50.3944 H       1  ZINC000971513996    0.0900
     42 H42         0.5568    0.7302   49.9147 H       1  ZINC000971513996    0.0700
     43 H43        -1.5447   -1.1863   48.7969 H       1  ZINC000971513996    0.0800
     44 H44        -1.8482    0.1521   49.9350 H       1  ZINC000971513996    0.1000
     45 H45        -1.9730    3.6716   50.2146 H       1  ZINC000971513996    0.1500
     46 H46        -3.4468    4.3058   52.6948 H       1  ZINC000971513996    0.1200
     47 H47        -6.1242    4.6746   54.1955 H       1  ZINC000971513996    0.0700
     48 H48        -5.9291    3.1633   55.1155 H       1  ZINC000971513996    0.0600
     49 H49        -4.5275    4.2259   54.8419 H       1  ZINC000971513996    0.0600
     50 H50        -6.7963    1.7638   53.3438 H       1  ZINC000971513996    0.1300
     51 H51        -6.3211    0.5413   51.2705 H       1  ZINC000971513996    0.1200
     52 H52        -4.4585    0.5137   49.0835 H       1  ZINC000971513996    0.4200
     53 H53        -0.9679   -0.2029   46.1668 H       1  ZINC000971513996    0.0800
     54 H54        -0.4396    1.4854   46.2528 H       1  ZINC000971513996    0.1200
@<TRIPOS>BOND
     1     1     2    1
     2     1    31    1
     3     1    32    1
     4     1    33    1
     5     2     3    1
     6     2    34    1
     7     2    35    1
     8     3     4    1
     9     3     5    1
    10     3     7    1
    11     5     6    1
    12     6    36    1
    13     6    37    1
    14     6    38    1
    15     7     8    2
    16     7     9   am
    17     9    29    1
    18     9    10    1
    19    10    11    1
    20    10    39    1
    21    10    40    1
    22    11    12    1
    23    11    29    1
    24    11    13    1
    25    13    14    1
    26    13    41    1
    27    13    42    1
    28    14    15    1
    29    14    43    1
    30    14    44    1
    31    15    16   am
    32    15    28    1
    33    16    17    2
    34    16    18    1
    35    18    27    1
    36    18    19    2
    37    19    20    1
    38    19    45    1
    39    20    26   ar
    40    20    21   ar
    41    21    22   ar
    42    21    46    1
    43    22    23    1
    44    22    24   ar
    45    23    47    1
    46    23    48    1
    47    23    49    1
    48    24    25   ar
    49    24    50    1
    50    25    26   ar
    51    25    51    1
    52    26    27    1
    53    27    52    1
    54    28    29    1
    55    28    53    1
    56    28    54    1
    57    29    30    1
@<TRIPOS>SUBSTRUCTURE
     1 ZINC000971513996        1 TEMP              0 ****  ****    0 ROOT


##########                                Name:    ZINC000751548479
##########                DOCK_Rotatable_Bonds:                   9
##########                         Heavy_Atoms:                  27
##########                    Molecular_Weight:             389.407
##########                DOCK_Rotatable_Bonds:                   9
##########                       Formal_Charge:           0.0199995
##########                     HBond_Acceptors:                   9
##########                        HBond_Donors:                   2
##########                         Heavy_Atoms:                  27
##########                          Grid_Score:          -27.525734
##########                     Grid_vdw_energy:          -27.087976
##########                      Grid_es_energy:           -0.437758
##########           Internal_energy_repulsive:           13.828767

@<TRIPOS>MOLECULE
ZINC000751548479
 43 44 1 0 0
SMALL
USER_CHARGES


@<TRIPOS>ATOM
      1 C1        -14.5739    2.1779   54.6244 C.3     1  ZINC000751548479   -0.1600
      2 C2        -13.1594    2.2241   54.0430 C.3     1  ZINC000751548479    0.0800
      3 O3        -12.2491    1.5198   54.9283 O.3     1  ZINC000751548479   -0.3600
      4 C4        -10.9619    1.4371   54.5415 C.2     1  ZINC000751548479    0.6500
      5 O5        -10.1568    0.8448   55.2325 O.2     1  ZINC000751548479   -0.5400
      6 N6        -10.5668    2.0112   53.3880 N.am    1  ZINC000751548479   -0.6500
      7 C7         -9.2320    1.9255   52.9868 C.ar    1  ZINC000751548479    0.2000
      8 C8         -8.3452    2.9458   53.2986 C.ar    1  ZINC000751548479   -0.1000
      9 C9         -7.0253    2.8626   52.9027 C.ar    1  ZINC000751548479   -0.1000
     10 C10        -6.5742    1.7573   52.1892 C.ar    1  ZINC000751548479    0.1300
     11 N11        -5.2345    1.6823   51.7920 N.am    1  ZINC000751548479   -1.0500
     12 S12        -4.7202    2.5103   50.4533 S.o2    1  ZINC000751548479    2.6800
     13 O13        -5.3671    1.9121   49.3384 O.2     1  ZINC000751548479   -0.9500
     14 O14        -4.8324    3.8914   50.7679 O.2     1  ZINC000751548479   -0.9400
     15 C15        -2.9993    2.1810   50.2656 C.2     1  ZINC000751548479   -0.7500
     16 C16        -2.5937    1.2206   49.4466 C.2     1  ZINC000751548479    0.0700
     17 C17        -1.1505    0.9431   49.2906 C.ar    1  ZINC000751548479   -0.1100
     18 C18        -0.2103    1.7274   49.9603 C.ar    1  ZINC000751548479   -0.0600
     19 C19         1.1354    1.4639   49.8115 C.ar    1  ZINC000751548479   -0.1600
     20 C20         1.5544    0.4229   48.9985 C.ar    1  ZINC000751548479    0.1200
     21 F21         2.8737    0.1693   48.8559 F       1  ZINC000751548479   -0.1300
     22 C22         0.6250   -0.3592   48.3317 C.ar    1  ZINC000751548479   -0.1600
     23 C23        -0.7233   -0.1076   48.4776 C.ar    1  ZINC000751548479   -0.0500
     24 C24        -7.4473    0.7305   51.8713 C.ar    1  ZINC000751548479   -0.0600
     25 C25        -8.7828    0.8049   52.2724 C.ar    1  ZINC000751548479   -0.0300
     26 C26        -9.6916   -0.2531   51.9479 C.1     1  ZINC000751548479    0.2500
     27 N27       -10.4125   -1.0925   51.6904 N.1     1  ZINC000751548479   -0.4000
     28 H28       -14.5795    2.6540   55.6048 H       1  ZINC000751548479    0.0700
     29 H29       -15.2572    2.7065   53.9598 H       1  ZINC000751548479    0.0900
     30 H30       -14.8927    1.1402   54.7225 H       1  ZINC000751548479    0.0700
     31 H31       -13.1539    1.7480   53.0625 H       1  ZINC000751548479    0.0800
     32 H32       -12.8406    3.2618   53.9448 H       1  ZINC000751548479    0.0800
     33 H33       -11.2095    2.4840   52.8364 H       1  ZINC000751548479    0.4200
     34 H34        -8.6883    3.8074   53.8520 H       1  ZINC000751548479    0.1600
     35 H35        -6.3395    3.6602   53.1480 H       1  ZINC000751548479    0.1700
     36 H36        -4.6071    1.1453   52.3008 H       1  ZINC000751548479    0.4300
     37 H37        -2.2752    2.7615   50.8177 H       1  ZINC000751548479    0.1700
     38 H38        -3.3180    0.6409   48.8935 H       1  ZINC000751548479    0.1500
     39 H39        -0.5358    2.5394   50.5935 H       1  ZINC000751548479    0.1400
     40 H40         1.8639    2.0703   50.3293 H       1  ZINC000751548479    0.1400
     41 H41         0.9568   -1.1695   47.6995 H       1  ZINC000751548479    0.1400
     42 H42        -1.4469   -0.7179   47.9578 H       1  ZINC000751548479    0.1400
     43 H43        -7.0955   -0.1272   51.3173 H       1  ZINC000751548479    0.1500
@<TRIPOS>BOND
     1     1     2    1
     2     1    28    1
     3     1    29    1
     4     1    30    1
     5     2     3    1
     6     2    31    1
     7     2    32    1
     8     3     4    1
     9     4     5    2
    10     4     6   am
    11     6     7    1
    12     6    33    1
    13     7    25   ar
    14     7     8   ar
    15     8     9   ar
    16     8    34    1
    17     9    10   ar
    18     9    35    1
    19    10    11    1
    20    10    24   ar
    21    11    12   am
    22    11    36    1
    23    12    13    2
    24    12    14    2
    25    12    15    1
    26    15    16    2
    27    15    37    1
    28    16    17    1
    29    16    38    1
    30    17    23   ar
    31    17    18   ar
    32    18    19   ar
    33    18    39    1
    34    19    20   ar
    35    19    40    1
    36    20    21    1
    37    20    22   ar
    38    22    23   ar
    39    22    41    1
    40    23    42    1
    41    24    25   ar
    42    24    43    1
    43    25    26    1
    44    26    27    3
@<TRIPOS>SUBSTRUCTURE
     1 ZINC000751548479        1 TEMP              0 ****  ****    0 ROOT


##########                                Name:    ZINC000516003207
##########                DOCK_Rotatable_Bonds:                   5
##########                         Heavy_Atoms:                  24
##########                    Molecular_Weight:             342.462
##########                DOCK_Rotatable_Bonds:                   5
##########                       Formal_Charge:          -0.0200001
##########                     HBond_Acceptors:                   5
##########                        HBond_Donors:                   1
##########                         Heavy_Atoms:                  24
##########                          Grid_Score:          -27.489130
##########                     Grid_vdw_energy:          -28.062788
##########                      Grid_es_energy:            0.573658
##########           Internal_energy_repulsive:            9.947189

@<TRIPOS>MOLECULE
ZINC000516003207
 46 49 1 0 0
SMALL
USER_CHARGES


@<TRIPOS>ATOM
      1 C1         -0.3238    0.1781   44.7014 C.3     1  ZINC000516003207    0.0300
      2 O2         -0.8262    0.0389   46.0320 O.3     1  ZINC000516003207   -0.3600
      3 C3         -0.2144    0.9169   46.9789 C.3     1  ZINC000516003207    0.0900
      4 H4          0.8531    1.0512   46.8044 H       1  ZINC000516003207    0.0800
      5 C5         -0.9787    2.2380   47.1801 C.3     1  ZINC000516003207   -0.1700
      6 C6         -1.7675    1.5273   48.2949 C.3     1  ZINC000516003207    0.1500
      7 H7         -2.6706    1.0292   47.9425 H       1  ZINC000516003207    0.1200
      8 N8         -2.0017    2.3640   49.4746 N.am    1  ZINC000516003207   -0.7200
      9 C9         -3.1624    2.2634   50.1522 C.2     1  ZINC000516003207    0.5600
     10 O10        -4.0141    1.4776   49.7856 O.2     1  ZINC000516003207   -0.5300
     11 C11        -3.3995    3.1090   51.3419 C.ar    1  ZINC000516003207   -0.1400
     12 C12        -2.4041    3.9784   51.7922 C.ar    1  ZINC000516003207   -0.0800
     13 C13        -2.6250    4.7678   52.9032 C.ar    1  ZINC000516003207   -0.1200
     14 C14        -3.8299    4.7032   53.5749 C.ar    1  ZINC000516003207   -0.0800
     15 C15        -4.8325    3.8391   53.1348 C.ar    1  ZINC000516003207   -0.0300
     16 C16        -6.1259    3.7718   53.8583 C.2     1  ZINC000516003207    0.1100
     17 C17        -6.3993    4.5234   54.9438 C.2     1  ZINC000516003207   -0.2600
     18 S18        -8.0309    4.1285   55.4780 S.3     1  ZINC000516003207    0.1400
     19 C19        -8.1894    3.0010   54.2034 C.2     1  ZINC000516003207    0.0600
     20 C20        -9.4150    2.1628   53.9452 C.3     1  ZINC000516003207   -0.0800
     21 N21        -7.1165    2.9717   53.4914 N.2     1  ZINC000516003207   -0.4700
     22 C22        -4.6195    3.0445   52.0131 C.ar    1  ZINC000516003207   -0.0300
     23 C23        -0.5624    0.5912   48.4318 C.3     1  ZINC000516003207   -0.1100
     24 C24        -0.7333   -0.8543   48.9005 C.3     1  ZINC000516003207   -0.1200
     25 C25         0.6881   -0.7427   49.4811 C.3     1  ZINC000516003207   -0.1400
     26 C26         0.4608    0.7782   49.5526 C.3     1  ZINC000516003207   -0.1200
     27 H27         0.7453   -0.0341   44.6926 H       1  ZINC000516003207    0.0400
     28 H28        -0.8385   -0.5223   44.0435 H       1  ZINC000516003207    0.0900
     29 H29        -0.4950    1.1966   44.3530 H       1  ZINC000516003207    0.0400
     30 H30        -0.3522    3.0536   47.5413 H       1  ZINC000516003207    0.0900
     31 H31        -1.5919    2.5216   46.3248 H       1  ZINC000516003207    0.0800
     32 H32        -1.3214    2.9901   49.7679 H       1  ZINC000516003207    0.4000
     33 H33        -1.4599    4.0332   51.2709 H       1  ZINC000516003207    0.1300
     34 H34        -1.8520    5.4384   53.2486 H       1  ZINC000516003207    0.1400
     35 H35        -3.9963    5.3230   54.4436 H       1  ZINC000516003207    0.1300
     36 H36        -5.7354    5.2401   55.4042 H       1  ZINC000516003207    0.1800
     37 H37       -10.1741    2.3891   54.6939 H       1  ZINC000516003207    0.0800
     38 H38        -9.8056    2.3865   52.9525 H       1  ZINC000516003207    0.0900
     39 H39        -9.1516    1.1066   54.0025 H       1  ZINC000516003207    0.0900
     40 H40        -5.3929    2.3740   51.6688 H       1  ZINC000516003207    0.1500
     41 H41        -1.5068   -0.9799   49.6582 H       1  ZINC000516003207    0.0800
     42 H42        -0.8174   -1.5718   48.0843 H       1  ZINC000516003207    0.0800
     43 H43         0.7983   -1.2135   50.4579 H       1  ZINC000516003207    0.0700
     44 H44         1.4698   -1.0343   48.7796 H       1  ZINC000516003207    0.0800
     45 H45         1.3307    1.3650   49.2572 H       1  ZINC000516003207    0.0700
     46 H46         0.0230    1.1115   50.4935 H       1  ZINC000516003207    0.0900
@<TRIPOS>BOND
     1     1     2    1
     2     1    27    1
     3     1    28    1
     4     1    29    1
     5     2     3    1
     6     3     4    1
     7     3    23    1
     8     3     5    1
     9     5     6    1
    10     5    30    1
    11     5    31    1
    12     6     7    1
    13     6     8    1
    14     6    23    1
    15     8     9   am
    16     8    32    1
    17     9    10    2
    18     9    11    1
    19    11    22   ar
    20    11    12   ar
    21    12    13   ar
    22    12    33    1
    23    13    14   ar
    24    13    34    1
    25    14    15   ar
    26    14    35    1
    27    15    16    1
    28    15    22   ar
    29    16    21    1
    30    16    17    2
    31    17    18    1
    32    17    36    1
    33    18    19    1
    34    19    20    1
    35    19    21    2
    36    20    37    1
    37    20    38    1
    38    20    39    1
    39    22    40    1
    40    23    26    1
    41    23    24    1
    42    24    25    1
    43    24    41    1
    44    24    42    1
    45    25    26    1
    46    25    43    1
    47    25    44    1
    48    26    45    1
    49    26    46    1
@<TRIPOS>SUBSTRUCTURE
     1 ZINC000516003207        1 TEMP              0 ****  ****    0 ROOT


##########                                Name:    ZINC000444542200
##########                DOCK_Rotatable_Bonds:                   8
##########                         Heavy_Atoms:                  28
##########                    Molecular_Weight:             404.337
##########                DOCK_Rotatable_Bonds:                   8
##########                       Formal_Charge:           0.0200001
##########                     HBond_Acceptors:                  10
##########                        HBond_Donors:                   1
##########                         Heavy_Atoms:                  28
##########                          Grid_Score:          -27.478685
##########                     Grid_vdw_energy:          -27.518536
##########                      Grid_es_energy:            0.039850
##########           Internal_energy_repulsive:           20.827803

@<TRIPOS>MOLECULE
ZINC000444542200
 45 46 1 0 0
SMALL
USER_CHARGES


@<TRIPOS>ATOM
      1 C1         -9.9253    4.3327   54.1094 C.3     1  ZINC000444542200    0.0300
      2 O2         -8.8347    4.6348   53.2369 O.3     1  ZINC000444542200   -0.3100
      3 C3         -8.3029    3.6010   52.5331 C.ar    1  ZINC000444542200    0.1800
      4 C4         -7.2437    3.8244   51.6667 C.ar    1  ZINC000444542200   -0.1700
      5 C5         -6.7005    2.7682   50.9483 C.ar    1  ZINC000444542200    0.2300
      6 N6         -5.6311    2.9931   50.0742 N.am    1  ZINC000444542200   -0.5800
      7 C7         -5.7979    3.8901   48.9280 C.3     1  ZINC000444542200    0.0700
      8 C8         -4.4476    2.3843   50.2868 C.2     1  ZINC000444542200    0.7100
      9 O9         -4.3090    1.6400   51.2382 O.2     1  ZINC000444542200   -0.5500
     10 N10        -3.4176    2.6009   49.4449 N.am    1  ZINC000444542200   -0.7300
     11 C11        -2.1316    1.9378   49.6751 C.3     1  ZINC000444542200    0.1700
     12 H12        -2.2711    1.1027   50.3616 H       1  ZINC000444542200    0.1500
     13 C13        -1.5888    1.4263   48.3656 C.ar    1  ZINC000444542200   -0.1300
     14 C14        -1.5076    2.2704   47.2742 C.ar    1  ZINC000444542200   -0.0800
     15 C15        -1.0099    1.8026   46.0721 C.ar    1  ZINC000444542200   -0.0900
     16 C16        -0.5924    0.4899   45.9593 C.ar    1  ZINC000444542200   -0.1100
     17 C17        -0.6724   -0.3580   47.0504 C.ar    1  ZINC000444542200    0.0800
     18 F18        -0.2644   -1.6412   46.9409 F       1  ZINC000444542200   -0.1200
     19 C19        -1.1662    0.1127   48.2575 C.ar    1  ZINC000444542200    0.1000
     20 F20        -1.2452   -0.7130   49.3238 F       1  ZINC000444542200   -0.1100
     21 C21        -1.1440    2.9369   50.2812 C.3     1  ZINC000444542200    0.4400
     22 F22        -1.4032    4.2148   49.7744 F       1  ZINC000444542200   -0.1600
     23 F23        -1.2879    2.9490   51.6727 F       1  ZINC000444542200   -0.1700
     24 F24         0.1622    2.5604   49.9507 F       1  ZINC000444542200   -0.1800
     25 C25        -7.2182    1.4890   51.0977 C.ar    1  ZINC000444542200   -0.1900
     26 C26        -8.2774    1.2670   51.9642 C.ar    1  ZINC000444542200    0.1800
     27 O27        -8.7843    0.0146   52.1106 O.3     1  ZINC000444542200   -0.3100
     28 C28        -9.9316   -0.1268   52.9505 C.3     1  ZINC000444542200    0.0300
     29 C29        -8.8163    2.3217   52.6858 C.ar    1  ZINC000444542200   -0.2900
     30 H30       -10.7501    3.9180   53.5298 H       1  ZINC000444542200    0.0600
     31 H31        -9.6034    3.6056   54.8550 H       1  ZINC000444542200    0.0600
     32 H32       -10.2542    5.2440   54.6089 H       1  ZINC000444542200    0.1000
     33 H33        -6.8417    4.8201   51.5508 H       1  ZINC000444542200    0.1300
     34 H34        -5.5347    4.9065   49.2208 H       1  ZINC000444542200    0.0700
     35 H35        -5.1477    3.5661   48.1154 H       1  ZINC000444542200    0.0700
     36 H36        -6.8355    3.8651   48.5951 H       1  ZINC000444542200    0.0900
     37 H37        -3.5277    3.1957   48.6866 H       1  ZINC000444542200    0.4100
     38 H38        -1.8337    3.2963   47.3603 H       1  ZINC000444542200    0.1400
     39 H39        -0.9476    2.4636   45.2203 H       1  ZINC000444542200    0.1500
     40 H40        -0.2041    0.1255   45.0197 H       1  ZINC000444542200    0.1500
     41 H41        -6.7961    0.6669   50.5386 H       1  ZINC000444542200    0.1400
     42 H42       -10.7489    0.4755   52.5537 H       1  ZINC000444542200    0.0600
     43 H43       -10.2332   -1.1739   52.9804 H       1  ZINC000444542200    0.1000
     44 H44        -9.6881    0.2101   53.9581 H       1  ZINC000444542200    0.0600
     45 H45        -9.6414    2.1482   53.3607 H       1  ZINC000444542200    0.1400
@<TRIPOS>BOND
     1     1     2    1
     2     1    30    1
     3     1    31    1
     4     1    32    1
     5     2     3    1
     6     3    29   ar
     7     3     4   ar
     8     4     5   ar
     9     4    33    1
    10     5     6    1
    11     5    25   ar
    12     6     7    1
    13     6     8   am
    14     7    34    1
    15     7    35    1
    16     7    36    1
    17     8     9    2
    18     8    10   am
    19    10    11    1
    20    10    37    1
    21    11    12    1
    22    11    13    1
    23    11    21    1
    24    13    19   ar
    25    13    14   ar
    26    14    15   ar
    27    14    38    1
    28    15    16   ar
    29    15    39    1
    30    16    17   ar
    31    16    40    1
    32    17    18    1
    33    17    19   ar
    34    19    20    1
    35    21    22    1
    36    21    23    1
    37    21    24    1
    38    25    26   ar
    39    25    41    1
    40    26    27    1
    41    26    29   ar
    42    27    28    1
    43    28    42    1
    44    28    43    1
    45    28    44    1
    46    29    45    1
@<TRIPOS>SUBSTRUCTURE
     1 ZINC000444542200        1 TEMP              0 ****  ****    0 ROOT


##########                                Name:    ZINC000866717058
##########                DOCK_Rotatable_Bonds:                   7
##########                         Heavy_Atoms:                  25
##########                    Molecular_Weight:             380.388
##########                DOCK_Rotatable_Bonds:                   7
##########                       Formal_Charge:                0.04
##########                     HBond_Acceptors:                  10
##########                        HBond_Donors:                   1
##########                         Heavy_Atoms:                  25
##########                          Grid_Score:          -27.472038
##########                     Grid_vdw_energy:          -27.258804
##########                      Grid_es_energy:           -0.213234
##########           Internal_energy_repulsive:           32.644207

@<TRIPOS>MOLECULE
ZINC000866717058
 44 45 1 0 0
SMALL
USER_CHARGES


@<TRIPOS>ATOM
      1 C1         -1.5616    0.7704   48.8453 C.3     1  ZINC000866717058   -0.1100
      2 C2         -2.1565    1.7565   49.8171 C.ar    1  ZINC000866717058    0.2400
      3 N3         -3.2821    1.4653   50.4344 N.ar    1  ZINC000866717058   -0.5500
      4 C4         -3.8417    2.3007   51.2964 C.ar    1  ZINC000866717058    0.3500
      5 O5         -5.0009    1.9538   51.9061 O.3     1  ZINC000866717058   -0.2800
      6 C6         -6.1493    2.7548   51.6203 C.3     1  ZINC000866717058    0.0500
      7 H7         -5.9273    3.7993   51.8390 H       1  ZINC000866717058    0.1300
      8 C8         -6.5168    2.6102   50.1421 C.3     1  ZINC000866717058   -0.1700
      9 C9         -7.3228    2.2909   52.4854 C.3     1  ZINC000866717058    0.4600
     10 F10        -8.4219    3.1288   52.2685 F       1  ZINC000866717058   -0.1700
     11 F11        -7.6631    0.9775   52.1442 F       1  ZINC000866717058   -0.1700
     12 F12        -6.9565    2.3422   53.8347 F       1  ZINC000866717058   -0.1700
     13 C13        -3.2561    3.5293   51.5852 C.ar    1  ZINC000866717058   -0.1900
     14 C14        -2.0753    3.8770   50.9615 C.ar    1  ZINC000866717058    0.0000
     15 C15        -1.5060    2.9674   50.0585 C.ar    1  ZINC000866717058   -0.2300
     16 C16        -0.2435    3.2908   49.3652 C.2     1  ZINC000866717058    0.5800
     17 O17         0.8217    3.0792   49.9119 O.2     1  ZINC000866717058   -0.5200
     18 N18        -0.2716    3.8207   48.1262 N.am    1  ZINC000866717058   -0.7400
     19 C19         0.9814    4.1432   47.4390 C.3     1  ZINC000866717058    0.1400
     20 C20         1.3107    3.0378   46.4338 C.3     1  ZINC000866717058   -0.5700
     21 H21         2.1817    3.3072   45.8363 H       1  ZINC000866717058    0.1500
     22 C22         1.5369    1.6853   47.1575 C.3     1  ZINC000866717058   -0.1100
     23 C23         1.3700    0.5843   46.0955 C.3     1  ZINC000866717058   -0.1200
     24 C24         0.0869    0.8662   45.2887 C.3     1  ZINC000866717058   -0.5900
     25 S25        -0.1315    2.6849   45.3592 S.o2    1  ZINC000866717058    2.3700
     26 O26        -1.3265    2.9886   46.0656 O.2     1  ZINC000866717058   -0.9200
     27 O27         0.0896    3.2361   44.0682 O.2     1  ZINC000866717058   -0.9300
     28 H28        -0.8005    0.1761   49.3508 H       1  ZINC000866717058    0.0900
     29 H29        -2.3454    0.1130   48.4691 H       1  ZINC000866717058    0.0700
     30 H30        -1.1084    1.3089   48.0129 H       1  ZINC000866717058    0.1100
     31 H31        -7.3928    3.2212   49.9241 H       1  ZINC000866717058    0.0900
     32 H32        -5.6808    2.9407   49.5259 H       1  ZINC000866717058    0.0900
     33 H33        -6.7389    1.5657   49.9235 H       1  ZINC000866717058    0.0800
     34 H34        -3.7207    4.2036   52.2894 H       1  ZINC000866717058    0.1600
     35 H35        -1.5992    4.8245   51.1667 H       1  ZINC000866717058    0.1500
     36 H36        -1.1214    3.9884   47.6897 H       1  ZINC000866717058    0.4000
     37 H37         0.8736    5.0920   46.9134 H       1  ZINC000866717058    0.1000
     38 H38         1.7866    4.2219   48.1693 H       1  ZINC000866717058    0.1000
     39 H39         2.5423    1.6500   47.5770 H       1  ZINC000866717058    0.1100
     40 H40         0.7975    1.5567   47.9479 H       1  ZINC000866717058    0.0900
     41 H41         2.2310    0.5864   45.4271 H       1  ZINC000866717058    0.0900
     42 H42         1.2899   -0.3868   46.5839 H       1  ZINC000866717058    0.1000
     43 H43         0.2107    0.5421   44.2553 H       1  ZINC000866717058    0.1400
     44 H44        -0.7653    0.3624   45.7447 H       1  ZINC000866717058    0.1400
@<TRIPOS>BOND
     1     1     2    1
     2     1    28    1
     3     1    29    1
     4     1    30    1
     5     2    15   ar
     6     2     3   ar
     7     3     4   ar
     8     4     5    1
     9     4    13   ar
    10     5     6    1
    11     6     7    1
    12     6     8    1
    13     6     9    1
    14     8    31    1
    15     8    32    1
    16     8    33    1
    17     9    10    1
    18     9    11    1
    19     9    12    1
    20    13    14   ar
    21    13    34    1
    22    14    15   ar
    23    14    35    1
    24    15    16    1
    25    16    17    2
    26    16    18   am
    27    18    19    1
    28    18    36    1
    29    19    20    1
    30    19    37    1
    31    19    38    1
    32    20    21    1
    33    20    25    1
    34    20    22    1
    35    22    23    1
    36    22    39    1
    37    22    40    1
    38    23    24    1
    39    23    41    1
    40    23    42    1
    41    24    25    1
    42    24    43    1
    43    24    44    1
    44    25    26    2
    45    25    27    2
@<TRIPOS>SUBSTRUCTURE
     1 ZINC000866717058        1 TEMP              0 ****  ****    0 ROOT


##########                                Name:    ZINC000151303733
##########                DOCK_Rotatable_Bonds:                   7
##########                         Heavy_Atoms:                  26
##########                    Molecular_Weight:             369.444
##########                DOCK_Rotatable_Bonds:                   7
##########                       Formal_Charge:        -1.93715e-07
##########                     HBond_Acceptors:                   7
##########                        HBond_Donors:                   2
##########                         Heavy_Atoms:                  26
##########                          Grid_Score:          -27.444448
##########                     Grid_vdw_energy:          -27.038445
##########                      Grid_es_energy:           -0.406004
##########           Internal_energy_repulsive:           61.864330

@<TRIPOS>MOLECULE
ZINC000151303733
 45 48 1 0 0
SMALL
USER_CHARGES


@<TRIPOS>ATOM
      1 C1         -6.4934    3.3496   54.8121 C.3     1  ZINC000151303733   -0.1000
      2 C2         -5.5167    4.4866   54.6555 C.2     1  ZINC000151303733   -0.1200
      3 C3         -5.4657    5.5112   55.5075 C.2     1  ZINC000151303733   -0.2000
      4 S4         -4.2105    6.6368   55.0072 S.3     1  ZINC000151303733    0.1200
      5 C5         -3.8094    5.6253   53.6255 C.2     1  ZINC000151303733   -0.2400
      6 C6         -4.5978    4.5442   53.6169 C.2     1  ZINC000151303733    0.1200
      7 N7         -4.5088    3.5483   52.6265 N.am    1  ZINC000151303733   -0.6400
      8 C8         -3.6019    3.6620   51.6361 C.2     1  ZINC000151303733    0.5100
      9 O9         -2.8622    4.6228   51.5983 O.2     1  ZINC000151303733   -0.5100
     10 C10        -3.5066    2.5956   50.5756 C.3     1  ZINC000151303733    0.1000
     11 N11        -2.1279    2.5146   50.0869 N.am    1  ZINC000151303733   -0.7100
     12 C12        -1.8862    2.1801   48.8039 C.2     1  ZINC000151303733    0.5200
     13 O13        -2.8101    1.9448   48.0543 O.2     1  ZINC000151303733   -0.5100
     14 C14        -0.4680    2.0986   48.3008 C.3     1  ZINC000151303733    0.1600
     15 H15         0.2114    1.8943   49.1283 H       1  ZINC000151303733    0.1300
     16 C16        -0.0841    3.3892   47.6214 C.ar    1  ZINC000151303733   -0.0900
     17 C17        -0.0001    4.6924   48.0529 C.ar    1  ZINC000151303733   -0.0900
     18 C18         0.3921    5.6883   47.1736 C.ar    1  ZINC000151303733   -0.0800
     19 C19         0.6999    5.3760   45.8615 C.ar    1  ZINC000151303733   -0.1200
     20 C20         0.6188    4.0718   45.4184 C.ar    1  ZINC000151303733   -0.0400
     21 C21         0.2244    3.0628   46.2985 C.ar    1  ZINC000151303733   -0.1500
     22 C22         0.0463    1.6082   46.1274 C.2     1  ZINC000151303733    0.5600
     23 O23         0.2344    1.0025   45.0905 O.2     1  ZINC000151303733   -0.5100
     24 N24        -0.3537    1.0476   47.2832 N.am    1  ZINC000151303733   -0.5700
     25 C25        -0.6295   -0.3762   47.4904 C.3     1  ZINC000151303733    0.0900
     26 C26         0.5121   -1.2474   48.0184 C.3     1  ZINC000151303733   -0.1800
     27 C27        -0.6610   -0.8872   48.9322 C.3     1  ZINC000151303733   -0.1900
     28 H28        -6.0458    2.5680   55.4260 H       1  ZINC000151303733    0.0700
     29 H29        -7.4012    3.7140   55.2928 H       1  ZINC000151303733    0.0700
     30 H30        -6.7395    2.9444   53.8306 H       1  ZINC000151303733    0.0600
     31 H31        -6.0997    5.6319   56.3735 H       1  ZINC000151303733    0.1700
     32 H32        -3.0413    5.8417   52.8977 H       1  ZINC000151303733    0.2000
     33 H33        -5.1003    2.7802   52.6567 H       1  ZINC000151303733    0.4200
     34 H34        -3.7989    1.6348   50.9992 H       1  ZINC000151303733    0.1100
     35 H35        -4.1711    2.8453   49.7485 H       1  ZINC000151303733    0.1100
     36 H36        -1.3890    2.7017   50.6868 H       1  ZINC000151303733    0.4100
     37 H37        -0.2400    4.9393   49.0765 H       1  ZINC000151303733    0.1300
     38 H38         0.4575    6.7114   47.5132 H       1  ZINC000151303733    0.1400
     39 H39         1.0047    6.1570   45.1806 H       1  ZINC000151303733    0.1400
     40 H40         0.8603    3.8323   44.3933 H       1  ZINC000151303733    0.1400
     41 H41        -1.3218   -0.8291   46.7807 H       1  ZINC000151303733    0.1400
     42 H42         0.5710   -2.2737   47.6559 H       1  ZINC000151303733    0.1000
     43 H43         1.4683   -0.7613   48.2116 H       1  ZINC000151303733    0.1300
     44 H44        -0.4765   -0.1640   49.7266 H       1  ZINC000151303733    0.1000
     45 H45        -1.3738   -1.6765   49.1710 H       1  ZINC000151303733    0.1000
@<TRIPOS>BOND
     1     1     2    1
     2     1    28    1
     3     1    29    1
     4     1    30    1
     5     2     6    1
     6     2     3    2
     7     3     4    1
     8     3    31    1
     9     4     5    1
    10     5     6    2
    11     5    32    1
    12     6     7    1
    13     7     8   am
    14     7    33    1
    15     8     9    2
    16     8    10    1
    17    10    11    1
    18    10    34    1
    19    10    35    1
    20    11    12   am
    21    11    36    1
    22    12    13    2
    23    12    14    1
    24    14    15    1
    25    14    24    1
    26    14    16    1
    27    16    21   ar
    28    16    17   ar
    29    17    18   ar
    30    17    37    1
    31    18    19   ar
    32    18    38    1
    33    19    20   ar
    34    19    39    1
    35    20    21   ar
    36    20    40    1
    37    21    22    1
    38    22    23    2
    39    22    24   am
    40    24    25    1
    41    25    27    1
    42    25    26    1
    43    25    41    1
    44    26    27    1
    45    26    42    1
    46    26    43    1
    47    27    44    1
    48    27    45    1
@<TRIPOS>SUBSTRUCTURE
     1 ZINC000151303733        1 TEMP              0 ****  ****    0 ROOT


##########                                Name:    ZINC000680410869
##########                DOCK_Rotatable_Bonds:                   6
##########                         Heavy_Atoms:                  24
##########                    Molecular_Weight:             335.354
##########                DOCK_Rotatable_Bonds:                   6
##########                       Formal_Charge:        -1.04308e-07
##########                     HBond_Acceptors:                   7
##########                        HBond_Donors:                   0
##########                         Heavy_Atoms:                  24
##########                          Grid_Score:          -27.438543
##########                     Grid_vdw_energy:          -27.111023
##########                      Grid_es_energy:           -0.327520
##########           Internal_energy_repulsive:           10.020522

@<TRIPOS>MOLECULE
ZINC000680410869
 43 45 1 0 0
SMALL
USER_CHARGES


@<TRIPOS>ATOM
      1 O1         -0.1654   -0.8040   44.7340 O.2     1  ZINC000680410869   -0.5200
      2 C2          0.1777    0.1683   45.3781 C.2     1  ZINC000680410869    0.6100
      3 C3          0.3896    1.4646   44.7024 C.2     1  ZINC000680410869    0.0100
      4 N4          1.4121    1.7930   43.9382 N.2     1  ZINC000680410869   -0.2500
      5 N5          1.2759    2.9976   43.5131 N.pl3   1  ZINC000680410869   -0.3500
      6 C6          2.2259    3.6899   42.6388 C.3     1  ZINC000680410869    0.5000
      7 F7          3.0710    4.4934   43.4118 F       1  ZINC000680410869   -0.1600
      8 F8          2.9884    2.7480   41.9400 F       1  ZINC000680410869   -0.1700
      9 C9          0.1310    3.5336   43.9876 C.2     1  ZINC000680410869    0.0100
     10 C10        -0.4697    2.5880   44.7474 C.2     1  ZINC000680410869   -0.1700
     11 N11         0.3595    0.0648   46.7095 N.am    1  ZINC000680410869   -0.6000
     12 C12         0.1545   -1.2159   47.4048 C.3     1  ZINC000680410869    0.0800
     13 C13        -0.7682   -0.9725   48.6044 C.3     1  ZINC000680410869    0.0500
     14 O14        -0.2446    0.1003   49.3911 O.3     1  ZINC000680410869   -0.3700
     15 C15        -0.1835    1.3532   48.7054 C.3     1  ZINC000680410869    0.0800
     16 H16        -1.1784    1.6233   48.3510 H       1  ZINC000680410869    0.0600
     17 C17         0.3297    2.4335   49.6596 C.3     1  ZINC000680410869   -0.1000
     18 C18        -0.4338    3.7362   49.4132 C.3     1  ZINC000680410869   -0.0800
     19 C19        -1.5102    3.8927   50.4564 C.ar    1  ZINC000680410869   -0.0800
     20 C20        -2.5521    2.9861   50.5156 C.ar    1  ZINC000680410869   -0.1200
     21 C21        -3.5394    3.1296   51.4725 C.ar    1  ZINC000680410869   -0.1200
     22 C22        -3.4845    4.1793   52.3703 C.ar    1  ZINC000680410869   -0.1300
     23 C23        -2.4421    5.0853   52.3115 C.ar    1  ZINC000680410869   -0.1200
     24 C24        -1.4525    4.9394   51.3575 C.ar    1  ZINC000680410869   -0.1200
     25 C25         0.7747    1.2276   47.5100 C.3     1  ZINC000680410869    0.0600
     26 H26         1.6800    4.3131   41.9305 H       1  ZINC000680410869    0.1700
     27 H27        -0.2388    4.5296   43.7935 H       1  ZINC000680410869    0.1900
     28 H28        -1.4049    2.6747   45.2806 H       1  ZINC000680410869    0.1700
     29 H29        -0.3075   -1.9324   46.7257 H       1  ZINC000680410869    0.1000
     30 H30         1.1128   -1.6029   47.7512 H       1  ZINC000680410869    0.0800
     31 H31        -1.7652   -0.7109   48.2497 H       1  ZINC000680410869    0.0600
     32 H32        -0.8224   -1.8763   49.2113 H       1  ZINC000680410869    0.1100
     33 H33         0.1760    2.1114   50.6895 H       1  ZINC000680410869    0.0800
     34 H34         1.3931    2.5971   49.4851 H       1  ZINC000680410869    0.0800
     35 H35         0.2556    4.5784   49.4734 H       1  ZINC000680410869    0.0700
     36 H36        -0.8886    3.7091   48.4230 H       1  ZINC000680410869    0.0800
     37 H37        -2.5949    2.1660   49.8142 H       1  ZINC000680410869    0.1200
     38 H38        -4.3538    2.4217   51.5184 H       1  ZINC000680410869    0.1200
     39 H39        -4.2563    4.2918   53.1174 H       1  ZINC000680410869    0.1200
     40 H40        -2.3994    5.9056   53.0128 H       1  ZINC000680410869    0.1200
     41 H41        -0.6381    5.6472   51.3115 H       1  ZINC000680410869    0.1200
     42 H42         1.7940    1.0874   47.8698 H       1  ZINC000680410869    0.0800
     43 H43         0.7209    2.1294   46.9000 H       1  ZINC000680410869    0.1300
@<TRIPOS>BOND
     1     1     2    2
     2     2     3    1
     3     2    11   am
     4     3    10    1
     5     3     4    2
     6     4     5    1
     7     5     6    1
     8     5     9    1
     9     6     7    1
    10     6     8    1
    11     6    26    1
    12     9    10    2
    13     9    27    1
    14    10    28    1
    15    11    25    1
    16    11    12    1
    17    12    13    1
    18    12    29    1
    19    12    30    1
    20    13    14    1
    21    13    31    1
    22    13    32    1
    23    14    15    1
    24    15    16    1
    25    15    17    1
    26    15    25    1
    27    17    18    1
    28    17    33    1
    29    17    34    1
    30    18    19    1
    31    18    35    1
    32    18    36    1
    33    19    24   ar
    34    19    20   ar
    35    20    21   ar
    36    20    37    1
    37    21    22   ar
    38    21    38    1
    39    22    23   ar
    40    22    39    1
    41    23    24   ar
    42    23    40    1
    43    24    41    1
    44    25    42    1
    45    25    43    1
@<TRIPOS>SUBSTRUCTURE
     1 ZINC000680410869        1 TEMP              0 ****  ****    0 ROOT


##########                                Name:    ZINC001757264545
##########                DOCK_Rotatable_Bonds:                  11
##########                         Heavy_Atoms:                  25
##########                    Molecular_Weight:             344.497
##########                DOCK_Rotatable_Bonds:                  11
##########                       Formal_Charge:          0.00999946
##########                     HBond_Acceptors:                   4
##########                        HBond_Donors:                   2
##########                         Heavy_Atoms:                  25
##########                          Grid_Score:          -27.427788
##########                     Grid_vdw_energy:          -27.443991
##########                      Grid_es_energy:            0.016203
##########           Internal_energy_repulsive:            7.069834

@<TRIPOS>MOLECULE
ZINC001757264545
 57 57 1 0 0
SMALL
USER_CHARGES


@<TRIPOS>ATOM
      1 C1         -0.9514    3.9629   58.4161 C.1     1  ZINC001757264545   -0.2100
      2 C2         -0.2402    3.6025   57.5542 C.1     1  ZINC001757264545   -0.1900
      3 C3          0.6514    3.1506   56.4737 C.3     1  ZINC001757264545   -0.0100
      4 C4          0.3042    3.8936   55.1819 C.3     1  ZINC001757264545   -0.1200
      5 C5          1.2575    3.4540   54.0689 C.3     1  ZINC001757264545   -0.1200
      6 C6          0.9718    4.2645   52.8031 C.3     1  ZINC001757264545   -0.1000
      7 C7          2.0638    3.9930   51.7663 C.3     1  ZINC001757264545   -0.1400
      8 C8          1.8592    2.6252   51.1676 C.2     1  ZINC001757264545    0.5100
      9 O9          2.3886    1.6574   51.6716 O.2     1  ZINC001757264545   -0.5400
     10 N10         1.0881    2.4775   50.0722 N.am    1  ZINC001757264545   -0.7300
     11 C11         0.8879    1.1477   49.4913 C.3     1  ZINC001757264545    0.1400
     12 H12         0.8012    0.4113   50.2904 H       1  ZINC001757264545    0.1000
     13 C13         2.0808    0.7953   48.6005 C.3     1  ZINC001757264545   -0.1300
     14 C14         1.8717   -0.5936   47.9937 C.3     1  ZINC001757264545   -0.1200
     15 C15         0.5913   -0.5968   47.1563 C.3     1  ZINC001757264545   -0.1200
     16 C16        -0.6017   -0.2445   48.0471 C.3     1  ZINC001757264545   -0.1300
     17 C17        -0.3925    1.1445   48.6537 C.3     1  ZINC001757264545    0.1400
     18 H18        -0.3058    1.8806   47.8547 H       1  ZINC001757264545    0.1000
     19 N19        -1.5348    1.4818   49.5067 N.am    1  ZINC001757264545   -0.7200
     20 C20        -2.6253    2.0667   48.9725 C.2     1  ZINC001757264545    0.6400
     21 O21        -2.6615    2.3130   47.7822 O.2     1  ZINC001757264545   -0.5200
     22 C22        -3.7412    2.3980   49.8066 C.1     1  ZINC001757264545   -0.2300
     23 C23        -4.6560    2.6696   50.4904 C.1     1  ZINC001757264545   -0.0500
     24 C24        -5.8030    3.0103   51.3478 C.3     1  ZINC001757264545    0.0300
     25 C25        -6.9741    2.0796   51.0264 C.3     1  ZINC001757264545   -0.1400
     26 C26        -5.4085    2.8450   52.8167 C.3     1  ZINC001757264545   -0.1400
     27 C27        -6.2186    4.4602   51.0913 C.3     1  ZINC001757264545   -0.1400
     28 H28        -1.5874    4.2852   59.1868 H       1  ZINC001757264545    0.2200
     29 H29         0.5240    2.0789   56.3217 H       1  ZINC001757264545    0.0900
     30 H30         1.6862    3.3587   56.7456 H       1  ZINC001757264545    0.0900
     31 H31         0.4035    4.9671   55.3423 H       1  ZINC001757264545    0.0700
     32 H32        -0.7213    3.6625   54.8942 H       1  ZINC001757264545    0.0700
     33 H33         1.1107    2.3939   53.8623 H       1  ZINC001757264545    0.0700
     34 H34         2.2870    3.6235   54.3843 H       1  ZINC001757264545    0.0700
     35 H35         0.9585    5.3268   53.0470 H       1  ZINC001757264545    0.0700
     36 H36         0.0037    3.9731   52.3958 H       1  ZINC001757264545    0.0700
     37 H37         3.0408    4.0365   52.2477 H       1  ZINC001757264545    0.0900
     38 H38         2.0127    4.7455   50.9794 H       1  ZINC001757264545    0.0900
     39 H39         0.6657    3.2518   49.6684 H       1  ZINC001757264545    0.4000
     40 H40         2.1675    1.5316   47.8014 H       1  ZINC001757264545    0.0700
     41 H41         2.9930    0.7975   49.1971 H       1  ZINC001757264545    0.0800
     42 H42         2.7216   -0.8447   47.3591 H       1  ZINC001757264545    0.0700
     43 H43         1.7850   -1.3299   48.7928 H       1  ZINC001757264545    0.0700
     44 H44         0.4424   -1.5863   46.7240 H       1  ZINC001757264545    0.0700
     45 H45         0.6780    0.1394   46.3572 H       1  ZINC001757264545    0.0700
     46 H46        -0.6884   -0.9807   48.8462 H       1  ZINC001757264545    0.0700
     47 H47        -1.5139   -0.2468   47.4504 H       1  ZINC001757264545    0.0800
     48 H48        -1.5064    1.2843   50.4560 H       1  ZINC001757264545    0.4000
     49 H49        -6.6780    1.0466   51.2091 H       1  ZINC001757264545    0.0600
     50 H50        -7.8235    2.3318   51.6612 H       1  ZINC001757264545    0.0700
     51 H51        -7.2551    2.1973   49.9798 H       1  ZINC001757264545    0.0600
     52 H52        -4.5743    3.5080   53.0457 H       1  ZINC001757264545    0.0600
     53 H53        -6.2579    3.0972   53.4517 H       1  ZINC001757264545    0.0700
     54 H54        -5.1125    1.8120   52.9994 H       1  ZINC001757264545    0.0600
     55 H55        -6.4996    4.5780   50.0447 H       1  ZINC001757264545    0.0600
     56 H56        -7.0680    4.7125   51.7263 H       1  ZINC001757264545    0.0700
     57 H57        -5.3842    5.1232   51.3203 H       1  ZINC001757264545    0.0600
@<TRIPOS>BOND
     1     1     2    3
     2     1    28    1
     3     2     3    1
     4     3     4    1
     5     3    29    1
     6     3    30    1
     7     4     5    1
     8     4    31    1
     9     4    32    1
    10     5     6    1
    11     5    33    1
    12     5    34    1
    13     6     7    1
    14     6    35    1
    15     6    36    1
    16     7     8    1
    17     7    37    1
    18     7    38    1
    19     8     9    2
    20     8    10   am
    21    10    11    1
    22    10    39    1
    23    11    12    1
    24    11    17    1
    25    11    13    1
    26    13    14    1
    27    13    40    1
    28    13    41    1
    29    14    15    1
    30    14    42    1
    31    14    43    1
    32    15    16    1
    33    15    44    1
    34    15    45    1
    35    16    17    1
    36    16    46    1
    37    16    47    1
    38    17    18    1
    39    17    19    1
    40    19    20   am
    41    19    48    1
    42    20    21    2
    43    20    22    1
    44    22    23    3
    45    23    24    1
    46    24    25    1
    47    24    26    1
    48    24    27    1
    49    25    49    1
    50    25    50    1
    51    25    51    1
    52    26    52    1
    53    26    53    1
    54    26    54    1
    55    27    55    1
    56    27    56    1
    57    27    57    1
@<TRIPOS>SUBSTRUCTURE
     1 ZINC001757264545        1 TEMP              0 ****  ****    0 ROOT


##########                                Name:    ZINC001079355651
##########                DOCK_Rotatable_Bonds:                   5
##########                         Heavy_Atoms:                  25
##########                    Molecular_Weight:             353.851
##########                DOCK_Rotatable_Bonds:                   5
##########                       Formal_Charge:           0.0199997
##########                     HBond_Acceptors:                   5
##########                        HBond_Donors:                   1
##########                         Heavy_Atoms:                  25
##########                          Grid_Score:          -27.417137
##########                     Grid_vdw_energy:          -26.313955
##########                      Grid_es_energy:           -1.103182
##########           Internal_energy_repulsive:            8.814397

@<TRIPOS>MOLECULE
ZINC001079355651
 45 47 1 0 0
SMALL
USER_CHARGES


@<TRIPOS>ATOM
      1 C1         -0.7617   -0.9719   48.7246 C.3     1  ZINC001079355651   -0.1500
      2 C2          0.0399    0.2930   48.4110 C.3     1  ZINC001079355651   -0.1000
      3 H3          1.0773    0.0389   48.1938 H       1  ZINC001079355651    0.0900
      4 C4         -0.0334    1.2814   49.5947 C.3     1  ZINC001079355651    0.0300
      5 N5         -0.1018    2.6224   48.9589 N.3     1  ZINC001079355651   -0.5100
      6 C6         -0.6631    3.6157   49.8842 C.3     1  ZINC001079355651    0.1600
      7 C7         -2.0321    3.2220   50.2553 C.1     1  ZINC001079355651   -0.1400
      8 C8         -3.1238    2.9080   50.5513 C.1     1  ZINC001079355651   -0.1300
      9 C9         -4.4556    2.5250   50.9124 C.ar    1  ZINC001079355651    0.0300
     10 C10        -4.9668    1.2942   50.4993 C.ar    1  ZINC001079355651   -0.0900
     11 C11        -6.2509    0.9304   50.8502 C.ar    1  ZINC001079355651   -0.1000
     12 C12        -7.0315    1.7827   51.6099 C.ar    1  ZINC001079355651   -0.1000
     13 C13        -6.5308    3.0060   52.0228 C.ar    1  ZINC001079355651   -0.0300
     14 Cl14       -7.5183    4.0694   52.9756 Cl      1  ZINC001079355651   -0.0600
     15 C15        -5.2454    3.3787   51.6834 C.ar    1  ZINC001079355651   -0.0900
     16 C16        -0.9913    2.4251   47.7856 C.3     1  ZINC001079355651    0.0200
     17 C17        -0.5887    1.0440   47.2192 C.3     1  ZINC001079355651    0.1500
     18 H18        -1.4687    0.5118   46.8581 H       1  ZINC001079355651    0.1000
     19 N19         0.3881    1.2022   46.1388 N.am    1  ZINC001079355651   -0.7100
     20 C20         0.5188    0.2414   45.2026 C.2     1  ZINC001079355651    0.5600
     21 O21        -0.1744   -0.7553   45.2540 O.2     1  ZINC001079355651   -0.5300
     22 C22         1.5077    0.4006   44.1110 C.ar    1  ZINC001079355651   -0.0900
     23 C23         2.3199    1.5362   44.0373 C.ar    1  ZINC001079355651   -0.1400
     24 C24         3.2287    1.6437   43.0024 C.ar    1  ZINC001079355651    0.1000
     25 N25         3.3351    0.6947   42.0937 N.ar    1  ZINC001079355651   -0.4700
     26 C26         2.5890   -0.3915   42.1262 C.ar    1  ZINC001079355651    0.1000
     27 C27         1.6587   -0.5833   43.1292 C.ar    1  ZINC001079355651   -0.1200
     28 H28        -0.7423   -1.6376   47.8616 H       1  ZINC001079355651    0.0600
     29 H29        -0.3210   -1.4777   49.5836 H       1  ZINC001079355651    0.0700
     30 H30        -1.7929   -0.7016   48.9518 H       1  ZINC001079355651    0.0600
     31 H31        -0.9280    1.0966   50.1894 H       1  ZINC001079355651    0.0600
     32 H32         0.8596    1.1994   50.2142 H       1  ZINC001079355651    0.0900
     33 H33        -0.0445    3.6679   50.7802 H       1  ZINC001079355651    0.0700
     34 H34        -0.6845    4.5920   49.4000 H       1  ZINC001079355651    0.1100
     35 H35        -4.3588    0.6277   49.9057 H       1  ZINC001079355651    0.1300
     36 H36        -6.6474   -0.0219   50.5305 H       1  ZINC001079355651    0.1400
     37 H37        -8.0359    1.4933   51.8817 H       1  ZINC001079355651    0.1400
     38 H38        -4.8554    4.3328   52.0060 H       1  ZINC001079355651    0.1400
     39 H39        -2.0358    2.4194   48.0972 H       1  ZINC001079355651    0.0600
     40 H40        -0.8195    3.2044   47.0430 H       1  ZINC001079355651    0.0900
     41 H41         0.9405    1.9984   46.0971 H       1  ZINC001079355651    0.4000
     42 H42         2.2380    2.3179   44.7780 H       1  ZINC001079355651    0.1400
     43 H43         3.8603    2.5173   42.9366 H       1  ZINC001079355651    0.1600
     44 H44         2.7097   -1.1436   41.3605 H       1  ZINC001079355651    0.1700
     45 H45         1.0507   -1.4758   43.1495 H       1  ZINC001079355651    0.1500
@<TRIPOS>BOND
     1     1     2    1
     2     1    28    1
     3     1    29    1
     4     1    30    1
     5     2     3    1
     6     2    17    1
     7     2     4    1
     8     4     5    1
     9     4    31    1
    10     4    32    1
    11     5     6    1
    12     5    16    1
    13     6     7    1
    14     6    33    1
    15     6    34    1
    16     7     8    3
    17     8     9    1
    18     9    15   ar
    19     9    10   ar
    20    10    11   ar
    21    10    35    1
    22    11    12   ar
    23    11    36    1
    24    12    13   ar
    25    12    37    1
    26    13    14    1
    27    13    15   ar
    28    15    38    1
    29    16    17    1
    30    16    39    1
    31    16    40    1
    32    17    18    1
    33    17    19    1
    34    19    20   am
    35    19    41    1
    36    20    21    2
    37    20    22    1
    38    22    27   ar
    39    22    23   ar
    40    23    24   ar
    41    23    42    1
    42    24    25   ar
    43    24    43    1
    44    25    26   ar
    45    26    27   ar
    46    26    44    1
    47    27    45    1
@<TRIPOS>SUBSTRUCTURE
     1 ZINC001079355651        1 TEMP              0 ****  ****    0 ROOT


##########                                Name:    ZINC000986832075
##########                DOCK_Rotatable_Bonds:                   7
##########                         Heavy_Atoms:                  25
##########                    Molecular_Weight:             347.433
##########                DOCK_Rotatable_Bonds:                   7
##########                       Formal_Charge:          -0.0200006
##########                     HBond_Acceptors:                   6
##########                        HBond_Donors:                   1
##########                         Heavy_Atoms:                  25
##########                          Grid_Score:          -27.344868
##########                     Grid_vdw_energy:          -27.997545
##########                      Grid_es_energy:            0.652677
##########           Internal_energy_repulsive:           40.079575

@<TRIPOS>MOLECULE
ZINC000986832075
 51 53 1 0 0
SMALL
USER_CHARGES


@<TRIPOS>ATOM
      1 C1         -7.9524    0.2693   62.1726 C.3     1  ZINC000986832075   -0.1700
      2 C2         -9.1140    0.5583   61.2196 C.3     1  ZINC000986832075    0.1500
      3 H3         -9.8433    1.1963   61.7186 H       1  ZINC000986832075    0.0900
      4 N4         -8.6076    1.2376   60.0245 N.am    1  ZINC000986832075   -0.7200
      5 C5         -8.4381    2.5746   60.0303 C.2     1  ZINC000986832075    0.5600
      6 O6         -8.7039    3.2166   61.0273 O.2     1  ZINC000986832075   -0.5100
      7 C7         -7.9282    3.2611   58.8223 C.ar    1  ZINC000986832075   -0.1300
      8 C8         -7.8777    4.6572   58.7559 C.ar    1  ZINC000986832075   -0.1100
      9 C9         -7.3947    5.2566   57.6094 C.ar    1  ZINC000986832075    0.0900
     10 N10        -6.9850    4.5330   56.5864 N.ar    1  ZINC000986832075   -0.4400
     11 C11        -7.0143    3.2159   56.6042 C.ar    1  ZINC000986832075    0.0700
     12 C12        -7.4772    2.5307   57.7152 C.ar    1  ZINC000986832075    0.1100
     13 F13        -7.5043    1.1801   57.7265 F       1  ZINC000986832075   -0.1000
     14 C14        -9.7806   -0.7579   60.8142 C.3     1  ZINC000986832075   -0.1000
     15 C15       -11.2701   -0.7031   61.1615 C.3     1  ZINC000986832075   -0.1300
     16 C16       -11.9273   -2.0350   60.7860 C.3     1  ZINC000986832075    0.1100
     17 N17       -11.6474   -2.3182   59.3717 N.am    1  ZINC000986832075   -0.6100
     18 C18       -12.6515   -2.5838   58.5129 C.2     1  ZINC000986832075    0.5200
     19 O19       -12.4076   -2.8160   57.3478 O.2     1  ZINC000986832075   -0.5300
     20 C20       -14.0775   -2.5922   59.0003 C.3     1  ZINC000986832075   -0.0800
     21 H21       -14.1188   -3.0350   59.9954 H       1  ZINC000986832075    0.0900
     22 C22       -14.9399   -3.4141   58.0401 C.3     1  ZINC000986832075   -0.1400
     23 C23       -14.6051   -1.1572   59.0584 C.3     1  ZINC000986832075   -0.1400
     24 C24       -13.6884   -0.0460   58.5425 C.3     1  ZINC000986832075   -0.1800
     25 C25       -14.9154   -0.4644   57.7299 C.3     1  ZINC000986832075   -0.1700
     26 C26       -10.2521   -2.3060   58.9115 C.3     1  ZINC000986832075    0.1000
     27 C27        -9.6139   -0.9711   59.3079 C.3     1  ZINC000986832075   -0.1300
     28 H28        -7.4776    1.2070   62.4615 H       1  ZINC000986832075    0.0600
     29 H29        -8.3293   -0.2362   63.0618 H       1  ZINC000986832075    0.0700
     30 H30        -7.2231   -0.3688   61.6736 H       1  ZINC000986832075    0.0600
     31 H31        -8.3943    0.7251   59.2289 H       1  ZINC000986832075    0.4000
     32 H32        -8.2117    5.2577   59.5891 H       1  ZINC000986832075    0.1500
     33 H33        -7.3522    6.3341   57.5499 H       1  ZINC000986832075    0.1700
     34 H34        -6.6688    2.6634   55.7428 H       1  ZINC000986832075    0.1800
     35 H35        -9.3127   -1.5826   61.3517 H       1  ZINC000986832075    0.0800
     36 H36       -11.3881   -0.5278   62.2308 H       1  ZINC000986832075    0.0700
     37 H37       -11.7438    0.1059   60.6053 H       1  ZINC000986832075    0.0800
     38 H38       -11.5177   -2.8322   61.4062 H       1  ZINC000986832075    0.0700
     39 H39       -13.0043   -1.9670   60.9389 H       1  ZINC000986832075    0.0900
     40 H40       -14.8288   -3.0246   57.0281 H       1  ZINC000986832075    0.0600
     41 H41       -14.6201   -4.4558   58.0656 H       1  ZINC000986832075    0.0600
     42 H42       -15.9850   -3.3473   58.3426 H       1  ZINC000986832075    0.0700
     43 H43       -15.2471   -0.9264   59.9084 H       1  ZINC000986832075    0.1100
     44 H44       -13.7271    0.9160   59.0535 H       1  ZINC000986832075    0.1000
     45 H45       -12.7094   -0.3373   58.1619 H       1  ZINC000986832075    0.0900
     46 H46       -14.7437   -1.0308   56.8147 H       1  ZINC000986832075    0.0900
     47 H47       -15.7614    0.2226   57.7063 H       1  ZINC000986832075    0.1000
     48 H48        -9.7060   -3.1253   59.3789 H       1  ZINC000986832075    0.0700
     49 H49       -10.2240   -2.4168   57.8274 H       1  ZINC000986832075    0.0900
     50 H50       -10.1031   -0.1596   58.7693 H       1  ZINC000986832075    0.0800
     51 H51        -8.5530   -0.9866   59.0580 H       1  ZINC000986832075    0.0800
@<TRIPOS>BOND
     1     1     2    1
     2     1    28    1
     3     1    29    1
     4     1    30    1
     5     2     3    1
     6     2     4    1
     7     2    14    1
     8     4     5   am
     9     4    31    1
    10     5     6    2
    11     5     7    1
    12     7    12   ar
    13     7     8   ar
    14     8     9   ar
    15     8    32    1
    16     9    10   ar
    17     9    33    1
    18    10    11   ar
    19    11    12   ar
    20    11    34    1
    21    12    13    1
    22    14    27    1
    23    14    15    1
    24    14    35    1
    25    15    16    1
    26    15    36    1
    27    15    37    1
    28    16    17    1
    29    16    38    1
    30    16    39    1
    31    17    18   am
    32    17    26    1
    33    18    19    2
    34    18    20    1
    35    20    21    1
    36    20    22    1
    37    20    23    1
    38    22    40    1
    39    22    41    1
    40    22    42    1
    41    23    25    1
    42    23    24    1
    43    23    43    1
    44    24    25    1
    45    24    44    1
    46    24    45    1
    47    25    46    1
    48    25    47    1
    49    26    27    1
    50    26    48    1
    51    26    49    1
    52    27    50    1
    53    27    51    1
@<TRIPOS>SUBSTRUCTURE
     1 ZINC000986832075        1 TEMP              0 ****  ****    0 ROOT


##########                                Name:      oleObject5.pdb
##########                DOCK_Rotatable_Bonds:                   5
##########                         Heavy_Atoms:                  24
##########                    Molecular_Weight:             323.438
##########                DOCK_Rotatable_Bonds:                   5
##########                       Formal_Charge:         0.000200074
##########                     HBond_Acceptors:                   4
##########                        HBond_Donors:                   2
##########                         Heavy_Atoms:                  24
##########                          Grid_Score:          -27.343027
##########                     Grid_vdw_energy:          -27.243298
##########                      Grid_es_energy:           -0.099730
##########           Internal_energy_repulsive:           10.836189

@<TRIPOS>MOLECULE
oleObject5.pdb
 49 51 1 0 0
SMALL
NO_CHARGES


@<TRIPOS>ATOM
      1 C           1.8863    1.4513   50.0484 C.3     1  UNL        -0.0394
      2 C           1.5047    2.7980   49.4415 C.ar    1  UNL        -0.0456
      3 C           2.4374    3.8499   49.5330 C.ar    1  UNL        -0.0590
      4 C           2.1437    5.1196   49.0162 C.ar    1  UNL        -0.0620
      5 C           0.9057    5.3525   48.4051 C.ar    1  UNL        -0.0619
      6 C          -0.0320    4.3144   48.3102 C.ar    1  UNL        -0.0565
      7 C           0.2516    3.0277   48.8153 C.ar    1  UNL        -0.0188
      8 C          -0.8315    1.9460   48.7047 C.3     1  UNL         0.0906
      9 N          -2.1535    2.5501   48.9476 N.am    1  UNL        -0.3025
     10 C          -3.1538    1.9142   49.6606 C.2     1  UNL         0.2156
     11 O          -2.9530    0.8813   50.2762 O.2     1  UNL        -0.2774
     12 C          -4.4502    2.7366   49.7876 C.3     1  UNL         0.0382
     13 C          -4.3881    3.7148   50.9912 C.3     1  UNL        -0.0292
     14 C          -4.5415    2.9752   52.3381 C.3     1  UNL        -0.0041
     15 N          -5.7936    2.1999   52.3677 N.4     1  UNL        -0.3167
     16 C          -5.8892    1.2017   51.2877 C.3     1  UNL        -0.0041
     17 C          -5.7224    1.8512   49.8907 C.3     1  UNL        -0.0292
     18 C          -0.7545    1.1943   47.3646 C.ar    1  UNL         0.0681
     19 N          -0.7125    1.9557   46.2442 N.ar    1  UNL        -0.2587
     20 C          -0.6353    1.3574   45.0407 C.ar    1  UNL         0.0272
     21 C          -0.5918   -0.0363   44.8902 C.ar    1  UNL        -0.0435
     22 C          -0.6290   -0.8370   46.0406 C.ar    1  UNL        -0.0559
     23 C          -0.7106   -0.2214   47.3040 C.ar    1  UNL        -0.0272
     24 C          -0.7420   -1.0910   48.5545 C.3     1  UNL        -0.0379
     25 H           2.9392    1.4314   50.3557 H       1  UNL         0.0280
     26 H           1.7487    0.6290   49.3376 H       1  UNL         0.0280
     27 H           1.2883    1.2377   50.9409 H       1  UNL         0.0280
     28 H           3.3979    3.6855   50.0136 H       1  UNL         0.0626
     29 H           2.8719    5.9217   49.0951 H       1  UNL         0.0623
     30 H           0.6703    6.3363   48.0093 H       1  UNL         0.0623
     31 H          -0.9916    4.5180   47.8443 H       1  UNL         0.0627
     32 H          -0.6813    1.1965   49.4874 H       1  UNL         0.0624
     33 H          -2.1819    3.5612   48.9313 H       1  UNL         0.1504
     34 H          -4.5290    3.3316   48.8684 H       1  UNL         0.0402
     35 H          -5.1989    4.4488   50.8976 H       1  UNL         0.0288
     36 H          -3.4512    4.2856   50.9844 H       1  UNL         0.0288
     37 H          -4.5382    3.7051   53.1575 H       1  UNL         0.0428
     38 H          -3.6853    2.3039   52.4847 H       1  UNL         0.0428
     39 H          -6.5803    2.8437   52.2924 H       1  UNL         0.1222
     40 H          -6.8613    0.6953   51.3385 H       1  UNL         0.0428
     41 H          -5.1150    0.4378   51.4315 H       1  UNL         0.0428
     42 H          -6.6028    2.4757   49.6913 H       1  UNL         0.0288
     43 H          -5.7085    1.0745   49.1153 H       1  UNL         0.0288
     44 H          -0.6074    2.0150   44.1728 H       1  UNL         0.0840
     45 H          -0.5290   -0.4850   43.9033 H       1  UNL         0.0639
     46 H          -0.5934   -1.9191   45.9503 H       1  UNL         0.0627
     47 H          -0.6985   -2.1587   48.3054 H       1  UNL         0.0280
     48 H          -1.6634   -0.9281   49.1267 H       1  UNL         0.0280
     49 H           0.1126   -0.8747   49.2069 H       1  UNL         0.0280
@<TRIPOS>BOND
     1     1     2    1
     2     1    25    1
     3     1    26    1
     4     1    27    1
     5     2     3   ar
     6     2     7   ar
     7     3     4   ar
     8     3    28    1
     9     4     5   ar
    10     4    29    1
    11     5     6   ar
    12     5    30    1
    13     6     7   ar
    14     6    31    1
    15     7     8    1
    16     8     9    1
    17     8    18    1
    18     8    32    1
    19     9    10   am
    20     9    33    1
    21    10    11    2
    22    10    12    1
    23    12    13    1
    24    12    17    1
    25    12    34    1
    26    13    14    1
    27    13    35    1
    28    13    36    1
    29    14    15    1
    30    14    37    1
    31    14    38    1
    32    15    16    1
    33    15    39    1
    34    16    17    1
    35    16    40    1
    36    16    41    1
    37    17    42    1
    38    17    43    1
    39    18    19   ar
    40    18    23   ar
    41    19    20   ar
    42    20    21   ar
    43    20    44    1
    44    21    22   ar
    45    21    45    1
    46    22    23   ar
    47    22    46    1
    48    23    24    1
    49    24    47    1
    50    24    48    1
    51    24    49    1
@<TRIPOS>SUBSTRUCTURE
     1 UNL         1 TEMP              0 ****  ****    0 ROOT


##########                                Name:    ZINC000561219098
##########                DOCK_Rotatable_Bonds:                   4
##########                         Heavy_Atoms:                  28
##########                    Molecular_Weight:             423.273
##########                DOCK_Rotatable_Bonds:                   4
##########                       Formal_Charge:          0.00999953
##########                     HBond_Acceptors:                   9
##########                        HBond_Donors:                   1
##########                         Heavy_Atoms:                  28
##########                          Grid_Score:          -27.341333
##########                     Grid_vdw_energy:          -27.040087
##########                      Grid_es_energy:           -0.301246
##########           Internal_energy_repulsive:            9.995880

@<TRIPOS>MOLECULE
ZINC000561219098
 45 48 1 0 0
SMALL
USER_CHARGES


@<TRIPOS>ATOM
      1 C1         -2.5153    1.8822   48.8209 C.3     1  ZINC000561219098    0.0700
      2 N2         -3.4286    2.2724   49.8979 N.pl3   1  ZINC000561219098   -0.4500
      3 C3         -3.0550    2.6817   51.1443 C.2     1  ZINC000561219098   -0.0100
      4 C4         -4.1652    2.9542   51.8553 C.2     1  ZINC000561219098   -0.1700
      5 C5         -5.2783    2.7034   51.0139 C.2     1  ZINC000561219098   -0.1100
      6 C6         -6.7102    2.8675   51.3725 C.2     1  ZINC000561219098    0.1600
      7 N7         -7.5921    3.5864   50.7093 N.2     1  ZINC000561219098   -0.2700
      8 N8         -8.8291    3.4902   51.3584 N.pl3   1  ZINC000561219098   -0.4700
      9 C9         -8.6701    2.6814   52.4494 C.2     1  ZINC000561219098    0.0300
     10 C10        -9.7137    2.3064   53.4173 C.2     1  ZINC000561219098    0.5900
     11 O11       -10.1069    3.1185   54.2329 O.2     1  ZINC000561219098   -0.5000
     12 N12       -10.2334    1.0631   53.3999 N.am    1  ZINC000561219098   -0.6100
     13 C13        -9.7737    0.0634   52.4228 C.3     1  ZINC000561219098    0.0500
     14 C14       -11.0030   -0.5425   51.7361 C.3     1  ZINC000561219098    0.0500
     15 O15       -11.9194   -1.0030   52.7321 O.3     1  ZINC000561219098   -0.3700
     16 C16       -12.4333    0.0296   53.5768 C.3     1  ZINC000561219098    0.1200
     17 H17       -12.9215    0.7897   52.9668 H       1  ZINC000561219098    0.0900
     18 C18       -13.4303   -0.5588   54.5414 C.ar    1  ZINC000561219098   -0.0500
     19 C19       -13.1029   -1.6853   55.2717 C.ar    1  ZINC000561219098   -0.1000
     20 C20       -14.0185   -2.2259   56.1582 C.ar    1  ZINC000561219098    0.1200
     21 F21       -13.6985   -3.3270   56.8727 F       1  ZINC000561219098   -0.1200
     22 C22       -15.2629   -1.6368   56.3128 C.ar    1  ZINC000561219098   -0.0600
     23 Cl23      -16.4119   -2.3133   57.4245 Cl      1  ZINC000561219098   -0.0300
     24 C24       -15.5892   -0.5095   55.5811 C.ar    1  ZINC000561219098   -0.0700
     25 C25       -14.6714    0.0326   54.6996 C.ar    1  ZINC000561219098   -0.0300
     26 Cl26      -15.0812    1.4481   53.7819 Cl      1  ZINC000561219098   -0.0400
     27 C27       -11.2731    0.6631   54.3614 C.3     1  ZINC000561219098    0.0900
     28 C28        -7.3525    2.2780   52.4709 C.2     1  ZINC000561219098   -0.1700
     29 C29        -4.7882    2.2908   49.8148 C.2     1  ZINC000561219098    0.0300
     30 H30        -2.2558    2.7597   48.2288 H       1  ZINC000561219098    0.0800
     31 H31        -1.6101    1.4526   49.2500 H       1  ZINC000561219098    0.0900
     32 H32        -3.0006    1.1437   48.1827 H       1  ZINC000561219098    0.0900
     33 H33        -2.0394    2.7719   51.5007 H       1  ZINC000561219098    0.1700
     34 H34        -4.2013    3.3001   52.8778 H       1  ZINC000561219098    0.1400
     35 H35        -9.6531    3.9218   51.0833 H       1  ZINC000561219098    0.4400
     36 H36        -9.1367    0.5427   51.6793 H       1  ZINC000561219098    0.1000
     37 H37        -9.2154   -0.7205   52.9347 H       1  ZINC000561219098    0.0900
     38 H38       -11.4861    0.2155   51.1194 H       1  ZINC000561219098    0.0700
     39 H39       -10.6946   -1.3798   51.1101 H       1  ZINC000561219098    0.1200
     40 H40       -12.1327   -2.1442   55.1504 H       1  ZINC000561219098    0.1600
     41 H41       -16.5593   -0.0500   55.7009 H       1  ZINC000561219098    0.1600
     42 H42       -10.8685   -0.0618   55.0676 H       1  ZINC000561219098    0.0900
     43 H43       -11.6303    1.5410   54.8999 H       1  ZINC000561219098    0.1100
     44 H44        -6.8957    1.6308   53.2050 H       1  ZINC000561219098    0.1600
     45 H45        -5.3746    2.0180   48.9498 H       1  ZINC000561219098    0.1700
@<TRIPOS>BOND
     1     1     2    1
     2     1    30    1
     3     1    31    1
     4     1    32    1
     5     2    29    1
     6     2     3    1
     7     3     4    2
     8     3    33    1
     9     4     5    1
    10     4    34    1
    11     5     6    1
    12     5    29    2
    13     6    28    1
    14     6     7    2
    15     7     8    1
    16     8     9    1
    17     8    35    1
    18     9    10    1
    19     9    28    2
    20    10    11    2
    21    10    12   am
    22    12    27    1
    23    12    13    1
    24    13    14    1
    25    13    36    1
    26    13    37    1
    27    14    15    1
    28    14    38    1
    29    14    39    1
    30    15    16    1
    31    16    17    1
    32    16    18    1
    33    16    27    1
    34    18    25   ar
    35    18    19   ar
    36    19    20   ar
    37    19    40    1
    38    20    21    1
    39    20    22   ar
    40    22    23    1
    41    22    24   ar
    42    24    25   ar
    43    24    41    1
    44    25    26    1
    45    27    42    1
    46    27    43    1
    47    28    44    1
    48    29    45    1
@<TRIPOS>SUBSTRUCTURE
     1 ZINC000561219098        1 TEMP              0 ****  ****    0 ROOT


##########                                Name:    ZINC000616491533
##########                DOCK_Rotatable_Bonds:                   4
##########                         Heavy_Atoms:                  27
##########                    Molecular_Weight:             375.418
##########                DOCK_Rotatable_Bonds:                   4
##########                       Formal_Charge:           0.0299996
##########                     HBond_Acceptors:                   7
##########                        HBond_Donors:                   0
##########                         Heavy_Atoms:                  27
##########                          Grid_Score:          -27.326736
##########                     Grid_vdw_energy:          -26.405960
##########                      Grid_es_energy:           -0.920776
##########           Internal_energy_repulsive:           13.967996

@<TRIPOS>MOLECULE
ZINC000616491533
 50 53 1 0 0
SMALL
USER_CHARGES


@<TRIPOS>ATOM
      1 C1          1.9650    3.2496   50.1707 C.3     1  ZINC000616491533   -0.1700
      2 C2          1.2321    3.2696   48.8279 C.3     1  ZINC000616491533    0.1400
      3 H3          1.3419    4.2482   48.3604 H       1  ZINC000616491533    0.0800
      4 C4          1.8065    2.1766   47.8997 C.3     1  ZINC000616491533   -0.1200
      5 C5          0.8035    1.0170   48.0726 C.3     1  ZINC000616491533   -0.0700
      6 C6         -0.5352    1.7566   48.2583 C.3     1  ZINC000616491533    0.0900
      7 N7         -0.1934    2.9699   49.0317 N.am    1  ZINC000616491533   -0.6100
      8 C8         -1.0463    3.6790   49.7973 C.2     1  ZINC000616491533    0.6100
      9 O9         -0.6533    4.6630   50.3941 O.2     1  ZINC000616491533   -0.5200
     10 C10        -2.4556    3.2619   49.9113 C.2     1  ZINC000616491533   -0.2400
     11 C11        -3.2267    3.2841   51.0563 C.2     1  ZINC000616491533    0.0700
     12 C12        -2.7829    3.7395   52.4224 C.3     1  ZINC000616491533    0.3400
     13 F13        -1.5482    3.1578   52.7297 F       1  ZINC000616491533   -0.1900
     14 F14        -2.6571    5.1328   52.4315 F       1  ZINC000616491533   -0.1600
     15 N15        -4.4478    2.8247   50.7273 N.pl3   1  ZINC000616491533   -0.2900
     16 C16        -5.5339    2.6856   51.6022 C.ar    1  ZINC000616491533    0.1300
     17 C17        -6.1430    1.4484   51.7637 C.ar    1  ZINC000616491533   -0.1000
     18 C18        -7.2130    1.3145   52.6267 C.ar    1  ZINC000616491533   -0.1000
     19 C19        -7.6781    2.4111   53.3290 C.ar    1  ZINC000616491533   -0.1000
     20 C20        -7.0737    3.6445   53.1702 C.ar    1  ZINC000616491533   -0.1000
     21 C21        -5.9992    3.7835   52.3135 C.ar    1  ZINC000616491533   -0.0900
     22 N22        -4.4500    2.5091   49.3640 N.2     1  ZINC000616491533   -0.2600
     23 C23        -3.2719    2.7703   48.8676 C.2     1  ZINC000616491533    0.0700
     24 C24         0.7695    0.1459   46.8252 C.3     1  ZINC000616491533   -0.1400
     25 C25        -0.2008   -1.0193   47.0490 C.3     1  ZINC000616491533    0.0600
     26 O26         0.1905   -1.7414   48.2186 O.3     1  ZINC000616491533   -0.3800
     27 C27         0.1549   -0.9727   49.4229 C.3     1  ZINC000616491533    0.0600
     28 C28         1.1412    0.1949   49.3079 C.3     1  ZINC000616491533   -0.1500
     29 H29         1.8406    2.2728   50.6380 H       1  ZINC000616491533    0.0600
     30 H30         3.0255    3.4425   50.0087 H       1  ZINC000616491533    0.0600
     31 H31         1.5511    4.0194   50.8220 H       1  ZINC000616491533    0.0800
     32 H32         1.8252    2.5196   46.8652 H       1  ZINC000616491533    0.0800
     33 H33         2.8024    1.8773   48.2262 H       1  ZINC000616491533    0.0900
     34 H34        -0.9548    2.0308   47.2904 H       1  ZINC000616491533    0.0800
     35 H35        -1.2375    1.1364   48.8154 H       1  ZINC000616491533    0.0800
     36 H36        -3.5218    3.4365   53.1643 H       1  ZINC000616491533    0.1400
     37 H37        -5.7807    0.5917   51.2149 H       1  ZINC000616491533    0.1300
     38 H38        -7.6873    0.3524   52.7527 H       1  ZINC000616491533    0.1400
     39 H39        -8.5156    2.3041   54.0026 H       1  ZINC000616491533    0.1300
     40 H40        -7.4390    4.4992   53.7202 H       1  ZINC000616491533    0.1400
     41 H41        -5.5274    4.7472   52.1899 H       1  ZINC000616491533    0.1300
     42 H42        -2.9713    2.6294   47.8399 H       1  ZINC000616491533    0.2100
     43 H43         0.4346    0.7403   45.9751 H       1  ZINC000616491533    0.0800
     44 H44         1.7676   -0.2446   46.6266 H       1  ZINC000616491533    0.0800
     45 H45        -1.2108   -0.6315   47.1816 H       1  ZINC000616491533    0.0500
     46 H46        -0.1763   -1.6842   46.1856 H       1  ZINC000616491533    0.1000
     47 H47        -0.8518   -0.5846   49.5773 H       1  ZINC000616491533    0.0500
     48 H48         0.4354   -1.6041   50.2660 H       1  ZINC000616491533    0.1000
     49 H49         2.1561   -0.1932   49.2205 H       1  ZINC000616491533    0.0800
     50 H50         1.0663    0.8235   50.1951 H       1  ZINC000616491533    0.0800
@<TRIPOS>BOND
     1     1     2    1
     2     1    29    1
     3     1    30    1
     4     1    31    1
     5     2     3    1
     6     2     7    1
     7     2     4    1
     8     4     5    1
     9     4    32    1
    10     4    33    1
    11     5    28    1
    12     5     6    1
    13     5    24    1
    14     6     7    1
    15     6    34    1
    16     6    35    1
    17     7     8   am
    18     8     9    2
    19     8    10    1
    20    10    23    1
    21    10    11    2
    22    11    12    1
    23    11    15    1
    24    12    13    1
    25    12    14    1
    26    12    36    1
    27    15    16    1
    28    15    22    1
    29    16    21   ar
    30    16    17   ar
    31    17    18   ar
    32    17    37    1
    33    18    19   ar
    34    18    38    1
    35    19    20   ar
    36    19    39    1
    37    20    21   ar
    38    20    40    1
    39    21    41    1
    40    22    23    2
    41    23    42    1
    42    24    25    1
    43    24    43    1
    44    24    44    1
    45    25    26    1
    46    25    45    1
    47    25    46    1
    48    26    27    1
    49    27    28    1
    50    27    47    1
    51    27    48    1
    52    28    49    1
    53    28    50    1
@<TRIPOS>SUBSTRUCTURE
     1 ZINC000616491533        1 TEMP              0 ****  ****    0 ROOT


##########                                Name:    ZINC001272744746
##########                DOCK_Rotatable_Bonds:                   6
##########                         Heavy_Atoms:                  25
##########                    Molecular_Weight:             348.417
##########                DOCK_Rotatable_Bonds:                   6
##########                       Formal_Charge:           0.0299999
##########                     HBond_Acceptors:                   6
##########                        HBond_Donors:                   1
##########                         Heavy_Atoms:                  25
##########                          Grid_Score:          -27.269192
##########                     Grid_vdw_energy:          -25.911381
##########                      Grid_es_energy:           -1.357810
##########           Internal_energy_repulsive:           27.264225

@<TRIPOS>MOLECULE
ZINC001272744746
 50 52 1 0 0
SMALL
USER_CHARGES


@<TRIPOS>ATOM
      1 C1          0.7864    4.3569   43.2085 C.2     1  ZINC001272744746   -0.1700
      2 C2          0.5178    3.7645   44.3457 C.2     1  ZINC001272744746   -0.1700
      3 C3          0.9132    2.3259   44.5577 C.3     1  ZINC001272744746    0.1500
      4 N4          0.9996    2.0499   45.9940 N.am    1  ZINC001272744746   -0.6100
      5 C5         -0.0756    1.4385   46.7867 C.3     1  ZINC001272744746    0.0700
      6 C6          0.5955    0.9682   48.0886 C.3     1  ZINC001272744746    0.1100
      7 C7          1.8181    1.8988   48.1870 C.3     1  ZINC001272744746   -0.1500
      8 C8          2.0755    2.3185   46.7551 C.2     1  ZINC001272744746    0.5200
      9 O9          3.0997    2.8296   46.3543 O.2     1  ZINC001272744746   -0.5200
     10 C10         1.0372   -0.4838   47.9691 C.3     1  ZINC001272744746   -0.1000
     11 C11        -0.1985   -1.3826   47.8516 C.3     1  ZINC001272744746   -0.1200
     12 C12        -1.1090   -1.1413   49.0589 C.3     1  ZINC001272744746   -0.1200
     13 C13        -1.5043    0.3361   49.1105 C.3     1  ZINC001272744746    0.0500
     14 N14        -0.2949    1.1630   49.2289 N.3     1  ZINC001272744746   -0.5100
     15 C15        -0.6408    2.5816   49.3905 C.3     1  ZINC001272744746    0.0800
     16 C16        -0.0924    3.0863   50.7002 C.ar    1  ZINC001272744746   -0.0200
     17 C17        -0.7439    4.1015   51.3750 C.ar    1  ZINC001272744746   -0.1700
     18 C18        -0.2436    4.5685   52.5786 C.ar    1  ZINC001272744746    0.1200
     19 F19        -0.8820    5.5609   53.2365 F       1  ZINC001272744746   -0.1200
     20 C20         0.9131    4.0164   53.1090 C.ar    1  ZINC001272744746    0.0400
     21 O21         1.4064    4.4730   54.2918 O.3     1  ZINC001272744746   -0.4700
     22 C22         1.5672    2.9944   52.4289 C.ar    1  ZINC001272744746    0.1300
     23 O23         2.7013    2.4496   52.9449 O.3     1  ZINC001272744746   -0.3000
     24 C24         3.3206    1.4053   52.1912 C.3     1  ZINC001272744746    0.0200
     25 C25         1.0581    2.5288   51.2269 C.ar    1  ZINC001272744746   -0.1800
     26 H26         1.2913    3.8143   42.4230 H       1  ZINC001272744746    0.1000
     27 H27         0.4991    5.3866   43.0549 H       1  ZINC001272744746    0.1000
     28 H28         0.0129    4.3072   45.1312 H       1  ZINC001272744746    0.1100
     29 H29         0.1658    1.6733   44.1066 H       1  ZINC001272744746    0.0900
     30 H30         1.8826    2.1433   44.0938 H       1  ZINC001272744746    0.0800
     31 H31        -0.8492    2.1746   47.0051 H       1  ZINC001272744746    0.0700
     32 H32        -0.5017    0.5887   46.2533 H       1  ZINC001272744746    0.0900
     33 H33         1.5897    2.7652   48.8078 H       1  ZINC001272744746    0.1100
     34 H34         2.6778    1.3591   48.5843 H       1  ZINC001272744746    0.1100
     35 H35         1.6592   -0.6028   47.0820 H       1  ZINC001272744746    0.0700
     36 H36         1.6080   -0.7642   48.8542 H       1  ZINC001272744746    0.0800
     37 H37        -0.7375   -1.1433   46.9348 H       1  ZINC001272744746    0.0600
     38 H38         0.1113   -2.4274   47.8316 H       1  ZINC001272744746    0.0700
     39 H39        -2.0055   -1.7544   48.9664 H       1  ZINC001272744746    0.0700
     40 H40        -0.5787   -1.4078   49.9731 H       1  ZINC001272744746    0.0700
     41 H41        -2.0380    0.6016   48.1978 H       1  ZINC001272744746    0.0400
     42 H42        -2.1491    0.5100   49.9719 H       1  ZINC001272744746    0.0900
     43 H43        -0.2098    3.1562   48.5706 H       1  ZINC001272744746    0.1000
     44 H44        -1.7249    2.6944   49.3828 H       1  ZINC001272744746    0.0600
     45 H45        -1.6445    4.5317   50.9624 H       1  ZINC001272744746    0.1400
     46 H46         2.2148    4.0269   54.5792 H       1  ZINC001272744746    0.3900
     47 H47         3.5986    1.7831   51.2073 H       1  ZINC001272744746    0.0600
     48 H48         4.2130    1.0604   52.7135 H       1  ZINC001272744746    0.1100
     49 H49         2.6225    0.5759   52.0780 H       1  ZINC001272744746    0.0600
     50 H50         1.5645    1.7354   50.6974 H       1  ZINC001272744746    0.1400
@<TRIPOS>BOND
     1     1     2    2
     2     1    26    1
     3     1    27    1
     4     2     3    1
     5     2    28    1
     6     3     4    1
     7     3    29    1
     8     3    30    1
     9     4     8   am
    10     4     5    1
    11     5     6    1
    12     5    31    1
    13     5    32    1
    14     6    14    1
    15     6     7    1
    16     6    10    1
    17     7     8    1
    18     7    33    1
    19     7    34    1
    20     8     9    2
    21    10    11    1
    22    10    35    1
    23    10    36    1
    24    11    12    1
    25    11    37    1
    26    11    38    1
    27    12    13    1
    28    12    39    1
    29    12    40    1
    30    13    14    1
    31    13    41    1
    32    13    42    1
    33    14    15    1
    34    15    16    1
    35    15    43    1
    36    15    44    1
    37    16    25   ar
    38    16    17   ar
    39    17    18   ar
    40    17    45    1
    41    18    19    1
    42    18    20   ar
    43    20    21    1
    44    20    22   ar
    45    21    46    1
    46    22    23    1
    47    22    25   ar
    48    23    24    1
    49    24    47    1
    50    24    48    1
    51    24    49    1
    52    25    50    1
@<TRIPOS>SUBSTRUCTURE
     1 ZINC001272744746        1 TEMP              0 ****  ****    0 ROOT


##########                                Name:    ZINC000550011575
##########                DOCK_Rotatable_Bonds:                   6
##########                         Heavy_Atoms:                  28
##########                    Molecular_Weight:             423.935
##########                DOCK_Rotatable_Bonds:                   6
##########                       Formal_Charge:          -0.0100002
##########                     HBond_Acceptors:                   7
##########                        HBond_Donors:                   0
##########                         Heavy_Atoms:                  28
##########                          Grid_Score:          -27.257360
##########                     Grid_vdw_energy:          -27.533049
##########                      Grid_es_energy:            0.275689
##########           Internal_energy_repulsive:           33.519226

@<TRIPOS>MOLECULE
ZINC000550011575
 51 53 1 0 0
SMALL
USER_CHARGES


@<TRIPOS>ATOM
      1 C1          1.2220    0.0227   48.6858 C.3     1  ZINC000550011575   -0.1400
      2 C2          0.4437    1.0138   47.8183 C.3     1  ZINC000550011575   -0.6100
      3 H3          0.9110    1.9966   47.8812 H       1  ZINC000550011575    0.1500
      4 C4          0.4534    0.5438   46.3865 C.2     1  ZINC000550011575    0.5400
      5 O5         -0.2731   -0.3639   46.0413 O.2     1  ZINC000550011575   -0.5100
      6 N6          1.2696    1.1320   45.4897 N.am    1  ZINC000550011575   -0.6000
      7 C7          1.2779    0.6762   44.0974 C.3     1  ZINC000550011575    0.0600
      8 C8          2.1485    2.2271   45.9072 C.3     1  ZINC000550011575    0.1500
      9 C9          2.7635    2.8696   44.6905 C.ar    1  ZINC000550011575   -0.1500
     10 C10         3.9648    2.3974   44.1906 C.ar    1  ZINC000550011575    0.1400
     11 F11         4.5867    1.3604   44.7932 F       1  ZINC000550011575   -0.1100
     12 C12         4.5285    2.9884   43.0723 C.ar    1  ZINC000550011575   -0.1500
     13 C13         3.8918    4.0486   42.4560 C.ar    1  ZINC000550011575   -0.0700
     14 C14         2.6919    4.5202   42.9552 C.ar    1  ZINC000550011575   -0.1300
     15 C15         2.1248    3.9278   44.0692 C.ar    1  ZINC000550011575    0.0000
     16 Cl16        0.6177    4.5202   44.6950 Cl      1  ZINC000550011575   -0.0500
     17 S17        -1.2684    1.1195   48.4084 S.o2    1  ZINC000550011575    2.4500
     18 O18        -2.1276    1.2497   47.2841 O.2     1  ZINC000550011575   -0.9200
     19 O19        -1.4936    0.0663   49.3354 O.2     1  ZINC000550011575   -0.9100
     20 C20        -1.2568    2.6922   49.3122 C.3     1  ZINC000550011575   -0.5300
     21 H21        -1.2722    3.5166   48.5993 H       1  ZINC000550011575    0.1500
     22 C22         0.0137    2.7793   50.1553 C.3     1  ZINC000550011575   -0.1100
     23 C23        -0.0959    4.0039   51.0713 C.3     1  ZINC000550011575   -0.1100
     24 C24        -1.1634    3.7223   52.1268 C.3     1  ZINC000550011575   -0.0900
     25 C25        -2.4387    3.2520   51.4774 C.ar    1  ZINC000550011575   -0.0600
     26 C26        -3.6065    3.3139   52.2262 C.ar    1  ZINC000550011575   -0.1200
     27 C27        -4.8062    2.8929   51.6902 C.ar    1  ZINC000550011575   -0.1100
     28 C28        -4.8467    2.4044   50.3978 C.ar    1  ZINC000550011575   -0.1100
     29 C29        -3.6878    2.3443   49.6514 C.ar    1  ZINC000550011575   -0.1500
     30 C30        -2.4796    2.7706   50.1884 C.ar    1  ZINC000550011575   -0.0800
     31 H31         1.3559    0.4404   49.6838 H       1  ZINC000550011575    0.0900
     32 H32         0.6672   -0.9130   48.7552 H       1  ZINC000550011575    0.0900
     33 H33         2.1972   -0.1655   48.2369 H       1  ZINC000550011575    0.0800
     34 H34         0.5421    1.2416   43.5256 H       1  ZINC000550011575    0.0700
     35 H35         2.2684    0.8323   43.6700 H       1  ZINC000550011575    0.0800
     36 H36         1.0295   -0.3845   44.0609 H       1  ZINC000550011575    0.0700
     37 H37         1.5687    2.9692   46.4560 H       1  ZINC000550011575    0.1000
     38 H38         2.9375    1.8352   46.5491 H       1  ZINC000550011575    0.1100
     39 H39         5.4659    2.6207   42.6819 H       1  ZINC000550011575    0.1500
     40 H40         4.3320    4.5095   41.5840 H       1  ZINC000550011575    0.1500
     41 H41         2.1953    5.3492   42.4730 H       1  ZINC000550011575    0.1400
     42 H42         0.1162    1.8775   50.7589 H       1  ZINC000550011575    0.0800
     43 H43         0.8805    2.8853   49.5029 H       1  ZINC000550011575    0.0900
     44 H44         0.8624    4.1854   51.5578 H       1  ZINC000550011575    0.0800
     45 H45        -0.3813    4.8770   50.4843 H       1  ZINC000550011575    0.0700
     46 H46        -0.8014    2.9519   52.8075 H       1  ZINC000550011575    0.0800
     47 H47        -1.3617    4.6344   52.6896 H       1  ZINC000550011575    0.0800
     48 H48        -3.5754    3.6946   53.2364 H       1  ZINC000550011575    0.1300
     49 H49        -5.7104    2.9444   52.2787 H       1  ZINC000550011575    0.1300
     50 H50        -5.7822    2.0706   49.9738 H       1  ZINC000550011575    0.1300
     51 H51        -3.7202    1.9619   48.6419 H       1  ZINC000550011575    0.1700
@<TRIPOS>BOND
     1     1     2    1
     2     1    31    1
     3     1    32    1
     4     1    33    1
     5     2     3    1
     6     2     4    1
     7     2    17    1
     8     4     5    2
     9     4     6   am
    10     6     7    1
    11     6     8    1
    12     7    34    1
    13     7    35    1
    14     7    36    1
    15     8     9    1
    16     8    37    1
    17     8    38    1
    18     9    15   ar
    19     9    10   ar
    20    10    11    1
    21    10    12   ar
    22    12    13   ar
    23    12    39    1
    24    13    14   ar
    25    13    40    1
    26    14    15   ar
    27    14    41    1
    28    15    16    1
    29    17    18    2
    30    17    19    2
    31    17    20    1
    32    20    21    1
    33    20    30    1
    34    20    22    1
    35    22    23    1
    36    22    42    1
    37    22    43    1
    38    23    24    1
    39    23    44    1
    40    23    45    1
    41    24    25    1
    42    24    46    1
    43    24    47    1
    44    25    30   ar
    45    25    26   ar
    46    26    27   ar
    47    26    48    1
    48    27    28   ar
    49    27    49    1
    50    28    29   ar
    51    28    50    1
    52    29    30   ar
    53    29    51    1
@<TRIPOS>SUBSTRUCTURE
     1 ZINC000550011575        1 TEMP              0 ****  ****    0 ROOT


##########                                Name:    ZINC000493443319
##########                DOCK_Rotatable_Bonds:                   6
##########                         Heavy_Atoms:                  25
##########                    Molecular_Weight:             348.399
##########                DOCK_Rotatable_Bonds:                   6
##########                       Formal_Charge:        -3.27826e-07
##########                     HBond_Acceptors:                   7
##########                        HBond_Donors:                   0
##########                         Heavy_Atoms:                  25
##########                          Grid_Score:          -27.183884
##########                     Grid_vdw_energy:          -26.726076
##########                      Grid_es_energy:           -0.457808
##########           Internal_energy_repulsive:          113.667679

@<TRIPOS>MOLECULE
ZINC000493443319
 49 51 1 0 0
SMALL
USER_CHARGES


@<TRIPOS>ATOM
      1 C1          1.9136    6.6042   42.3686 C.3     1  <0>        -0.1500
      2 C2          1.1571    5.4244   42.9824 C.3     1  <0>         0.0500
      3 O3          1.6785    5.1497   44.2841 O.3     1  <0>        -0.3200
      4 C4          1.1123    4.1220   44.9716 C.ar    1  <0>         0.1000
      5 C5          0.0808    3.3910   44.4012 C.ar    1  <0>        -0.1700
      6 C6         -0.4944    2.3472   45.0995 C.ar    1  <0>        -0.1100
      7 C7         -0.0400    2.0297   46.3709 C.ar    1  <0>         0.0800
      8 O8         -0.6064    1.0023   47.0585 O.3     1  <0>        -0.3000
      9 C9          0.0483    0.5858   48.2585 C.3     1  <0>         0.1000
     10 C10        -0.7133   -0.5903   48.8731 C.3     1  <0>        -0.1800
     11 C11         1.4797    0.1534   47.9349 C.3     1  <0>        -0.1500
     12 C12         0.0787    1.7312   49.2376 C.2     1  <0>         0.5100
     13 O13         1.1013    1.9904   49.8358 O.2     1  <0>        -0.5200
     14 N14        -1.0305    2.4672   49.4482 N.am    1  <0>        -0.6000
     15 C15        -2.2699    2.1557   48.7253 C.3     1  <0>         0.0700
     16 C16        -3.3950    1.9065   49.7425 C.3     1  <0>         0.1300
     17 N17        -3.3294    2.9818   50.7421 N.am    1  <0>        -0.6300
     18 C18        -4.3025    3.8028   51.1402 C.2     1  <0>         0.6500
     19 O19        -5.4671    3.6554   50.8264 O.2     1  <0>        -0.5200
     20 O20        -3.8738    4.8054   51.9188 O.3     1  <0>        -0.3200
     21 C21        -2.4476    4.6439   52.1779 C.3     1  <0>         0.0500
     22 C22        -2.0857    3.3330   51.4612 C.3     1  <0>         0.0800
     23 H23        -1.7974    2.5558   52.1690 H       1  <0>         0.1100
     24 C24        -1.0056    3.5818   50.4078 C.3     1  <0>         0.1000
     25 C25         0.9925    2.7597   46.9407 C.ar    1  <0>        -0.1800
     26 C26         1.5702    3.8012   46.2408 C.ar    1  <0>        -0.1100
     27 H27         1.5160    6.8139   41.3756 H       1  <0>         0.0800
     28 H28         1.7916    7.4831   43.0018 H       1  <0>         0.0700
     29 H29         2.9722    6.3563   42.2911 H       1  <0>         0.0700
     30 H30         0.0984    5.6724   43.0598 H       1  <0>         0.0600
     31 H31         1.2791    4.5457   42.3491 H       1  <0>         0.0600
     32 H32        -0.2731    3.6383   43.4112 H       1  <0>         0.1400
     33 H33        -1.2981    1.7785   44.6556 H       1  <0>         0.1400
     34 H34        -0.6236   -1.4607   48.2231 H       1  <0>         0.0800
     35 H35        -0.2938   -0.8231   49.8519 H       1  <0>         0.0900
     36 H36        -1.7649   -0.3251   48.9822 H       1  <0>         0.0800
     37 H37         1.9951    0.9619   47.4165 H       1  <0>         0.0800
     38 H38         2.0069   -0.0794   48.8600 H       1  <0>         0.0900
     39 H39         1.4569   -0.7305   47.2975 H       1  <0>         0.0900
     40 H40        -2.5381    2.9947   48.0833 H       1  <0>         0.0800
     41 H41        -2.1231    1.2626   48.1180 H       1  <0>         0.1300
     42 H42        -4.3615    1.9275   49.2387 H       1  <0>         0.1100
     43 H43        -3.2496    0.9410   50.2270 H       1  <0>         0.0800
     44 H44        -1.8859    5.4775   51.7565 H       1  <0>         0.1100
     45 H45        -2.2610    4.5583   53.2484 H       1  <0>         0.1100
     46 H46        -0.0282    3.6327   50.8876 H       1  <0>         0.1100
     47 H47        -1.2091    4.5167   49.8855 H       1  <0>         0.0800
     48 H48         1.3466    2.5123   47.9306 H       1  <0>         0.1600
     49 H49         2.3742    4.3696   46.6846 H       1  <0>         0.1300
@<TRIPOS>BOND
     1     1     2    1
     2     1    27    1
     3     1    28    1
     4     1    29    1
     5     2     3    1
     6     2    30    1
     7     2    31    1
     8     3     4    1
     9     4    26   ar
    10     4     5   ar
    11     5     6   ar
    12     5    32    1
    13     6     7   ar
    14     6    33    1
    15     7     8    1
    16     7    25   ar
    17     8     9    1
    18     9    10    1
    19     9    11    1
    20     9    12    1
    21    10    34    1
    22    10    35    1
    23    10    36    1
    24    11    37    1
    25    11    38    1
    26    11    39    1
    27    12    13    2
    28    12    14   am
    29    14    24    1
    30    14    15    1
    31    15    16    1
    32    15    40    1
    33    15    41    1
    34    16    17    1
    35    16    42    1
    36    16    43    1
    37    17    22    1
    38    17    18   am
    39    18    19    2
    40    18    20    1
    41    20    21    1
    42    21    22    1
    43    21    44    1
    44    21    45    1
    45    22    23    1
    46    22    24    1
    47    24    46    1
    48    24    47    1
    49    25    26   ar
    50    25    48    1
    51    26    49    1
@<TRIPOS>SUBSTRUCTURE
     1 <0>         1 TEMP              0 ****  ****    0 ROOT


##########                                Name:    ZINC000277085192
##########                DOCK_Rotatable_Bonds:                   4
##########                         Heavy_Atoms:                  23
##########                    Molecular_Weight:             335.747
##########                DOCK_Rotatable_Bonds:                   4
##########                       Formal_Charge:         5.96046e-08
##########                     HBond_Acceptors:                   8
##########                        HBond_Donors:                   2
##########                         Heavy_Atoms:                  23
##########                          Grid_Score:          -27.166290
##########                     Grid_vdw_energy:          -27.348341
##########                      Grid_es_energy:            0.182051
##########           Internal_energy_repulsive:            5.852106

@<TRIPOS>MOLECULE
ZINC000277085192
 37 39 1 0 0
SMALL
USER_CHARGES


@<TRIPOS>ATOM
      1 O1          0.0298   -0.3724   49.9517 O.2     1  ZINC000277085192   -0.5000
      2 C2         -0.0739   -0.1452   48.7647 C.2     1  ZINC000277085192    0.5000
      3 C3          0.6454   -1.0142   47.7656 C.3     1  ZINC000277085192    0.1100
      4 N4          1.0311   -0.2076   46.6051 N.am    1  ZINC000277085192   -0.6000
      5 C5          2.1822    0.6920   46.7017 C.3     1  ZINC000277085192    0.1100
      6 C6          2.9254    0.7170   45.3642 C.3     1  ZINC000277085192   -0.1600
      7 C7          1.9277    0.8848   44.2458 C.2     1  ZINC000277085192    0.5200
      8 O8          2.2259    1.5200   43.2573 O.2     1  ZINC000277085192   -0.5000
      9 N9          0.7064    0.3287   44.3456 N.am    1  ZINC000277085192   -0.6700
     10 C10         0.3272   -0.3078   45.4657 C.2     1  ZINC000277085192    0.7200
     11 O11        -0.6825   -0.9841   45.4507 O.2     1  ZINC000277085192   -0.5500
     12 N12        -0.8370    0.8810   48.3392 N.am    1  ZINC000277085192   -0.6700
     13 C13        -1.5053    1.6885   49.2674 C.ar    1  ZINC000277085192    0.1400
     14 C14        -2.8235    1.4248   49.5902 C.ar    1  ZINC000277085192   -0.0400
     15 C15        -3.4943    2.2343   50.5202 C.ar    1  ZINC000277085192   -0.1700
     16 C16        -2.8189    3.3020   51.1123 C.ar    1  ZINC000277085192   -0.0500
     17 C17        -1.5009    3.5555   50.7819 C.ar    1  ZINC000277085192   -0.0900
     18 C18        -0.8410    2.7531   49.8692 C.ar    1  ZINC000277085192   -0.0300
     19 Cl19        0.8143    3.0826   49.4632 Cl      1  ZINC000277085192   -0.0500
     20 C20        -3.7429    4.0170   52.0692 C.3     1  ZINC000277085192   -0.0800
     21 C21        -5.0838    3.2725   52.0108 C.3     1  ZINC000277085192   -0.1700
     22 C22        -4.8769    2.1543   51.0184 C.2     1  ZINC000277085192    0.4100
     23 O23        -5.7057    1.3326   50.6890 O.2     1  ZINC000277085192   -0.4300
     24 H24         1.5379   -1.4365   48.2273 H       1  ZINC000277085192    0.1300
     25 H25        -0.0138   -1.8208   47.4445 H       1  ZINC000277085192    0.1200
     26 H26         1.8380    1.6973   46.9448 H       1  ZINC000277085192    0.0800
     27 H27         2.8541    0.3392   47.4841 H       1  ZINC000277085192    0.1000
     28 H28         3.6280    1.5503   45.3534 H       1  ZINC000277085192    0.1300
     29 H29         3.4674   -0.2193   45.2312 H       1  ZINC000277085192    0.1200
     30 H30         0.0929    0.3854   43.5964 H       1  ZINC000277085192    0.4300
     31 H31        -0.9230    1.0603   47.3898 H       1  ZINC000277085192    0.4200
     32 H32        -3.3375    0.5959   49.1263 H       1  ZINC000277085192    0.1500
     33 H33        -0.9820    4.3832   51.2423 H       1  ZINC000277085192    0.1500
     34 H34        -3.3372    3.9787   53.0802 H       1  ZINC000277085192    0.1000
     35 H35        -3.8759    5.0529   51.7576 H       1  ZINC000277085192    0.1000
     36 H36        -5.3331    2.8662   52.9911 H       1  ZINC000277085192    0.1100
     37 H37        -5.8725    3.9417   51.6668 H       1  ZINC000277085192    0.1100
@<TRIPOS>BOND
     1     1     2    2
     2     2     3    1
     3     2    12   am
     4     3     4    1
     5     3    24    1
     6     3    25    1
     7     4    10   am
     8     4     5    1
     9     5     6    1
    10     5    26    1
    11     5    27    1
    12     6     7    1
    13     6    28    1
    14     6    29    1
    15     7     8    2
    16     7     9   am
    17     9    10   am
    18     9    30    1
    19    10    11    2
    20    12    13    1
    21    12    31    1
    22    13    18   ar
    23    13    14   ar
    24    14    15   ar
    25    14    32    1
    26    15    22    1
    27    15    16   ar
    28    16    17   ar
    29    16    20    1
    30    17    18   ar
    31    17    33    1
    32    18    19    1
    33    20    21    1
    34    20    34    1
    35    20    35    1
    36    21    22    1
    37    21    36    1
    38    21    37    1
    39    22    23    2
@<TRIPOS>SUBSTRUCTURE
     1 ZINC000277085192        1 TEMP              0 ****  ****    0 ROOT


##########                                Name:    ZINC000951315041
##########                DOCK_Rotatable_Bonds:                   5
##########                         Heavy_Atoms:                  25
##########                    Molecular_Weight:             340.382
##########                DOCK_Rotatable_Bonds:                   5
##########                       Formal_Charge:          0.00999974
##########                     HBond_Acceptors:                   7
##########                        HBond_Donors:                   1
##########                         Heavy_Atoms:                  25
##########                          Grid_Score:          -27.090273
##########                     Grid_vdw_energy:          -26.700777
##########                      Grid_es_energy:           -0.389495
##########           Internal_energy_repulsive:           24.161589

@<TRIPOS>MOLECULE
ZINC000951315041
 45 47 1 0 0
SMALL
USER_CHARGES


@<TRIPOS>ATOM
      1 C1         -0.8365    2.5190   45.4318 C.3     1  ZINC000951315041    0.0500
      2 N2         -1.0838    1.7137   46.6304 N.am    1  ZINC000951315041   -0.4900
      3 C3         -1.4114    2.3257   47.7836 C.2     1  ZINC000951315041    0.1700
      4 C4         -1.6481    1.5870   48.9248 C.2     1  ZINC000951315041   -0.2400
      5 C5         -2.0067    2.2620   50.1858 C.2     1  ZINC000951315041    0.5800
      6 O6         -1.1485    2.8199   50.8423 O.2     1  ZINC000951315041   -0.5200
      7 N7         -3.2857    2.2608   50.6108 N.am    1  ZINC000951315041   -0.6000
      8 C8         -4.3338    1.5912   49.8287 C.3     1  ZINC000951315041    0.1100
      9 C9         -5.4671    2.5883   49.5673 C.3     1  ZINC000951315041   -0.1300
     10 C10        -5.9496    3.1666   50.8996 C.3     1  ZINC000951315041   -0.1300
     11 C11        -4.7990    3.9108   51.5812 C.3     1  ZINC000951315041    0.1300
     12 H12        -4.4408    4.7050   50.9262 H       1  ZINC000951315041    0.1000
     13 N13        -5.2705    4.4913   52.8409 N.am    1  ZINC000951315041   -0.7200
     14 C14        -5.7431    3.6906   53.8167 C.2     1  ZINC000951315041    0.5700
     15 O15        -5.7794    2.4870   53.6509 O.2     1  ZINC000951315041   -0.5200
     16 C16        -6.2172    4.2763   55.0887 C.ar    1  ZINC000951315041   -0.1900
     17 C17        -6.6969    3.4546   56.1155 C.ar    1  ZINC000951315041   -0.0100
     18 C18        -7.1285    4.0526   57.2865 C.ar    1  ZINC000951315041   -0.1800
     19 C19        -7.0726    5.4295   57.4041 C.ar    1  ZINC000951315041    0.1300
     20 N20        -6.6157    6.1793   56.4190 N.ar    1  ZINC000951315041   -0.4900
     21 C21        -6.1886    5.6572   55.2883 C.ar    1  ZINC000951315041    0.1400
     22 C22        -3.6573    2.9238   51.8682 C.3     1  ZINC000951315041    0.1000
     23 C23        -1.5445    0.1756   48.8756 C.2     1  ZINC000951315041    0.0100
     24 C24        -1.2126   -0.4205   47.6994 C.2     1  ZINC000951315041   -0.2300
     25 C25        -0.9851    0.3738   46.5598 C.2     1  ZINC000951315041    0.5100
     26 O26        -0.6876   -0.1562   45.5023 O.2     1  ZINC000951315041   -0.5400
     27 H27        -0.5907    1.8623   44.5972 H       1  ZINC000951315041    0.1100
     28 H28        -1.7302    3.0945   45.1901 H       1  ZINC000951315041    0.0800
     29 H29        -0.0051    3.1991   45.6162 H       1  ZINC000951315041    0.0800
     30 H30        -1.4891    3.4023   47.8159 H       1  ZINC000951315041    0.1700
     31 H31        -3.9203    1.2510   48.8793 H       1  ZINC000951315041    0.1000
     32 H32        -4.7189    0.7387   50.3882 H       1  ZINC000951315041    0.0700
     33 H33        -5.1025    3.3949   48.9313 H       1  ZINC000951315041    0.0700
     34 H34        -6.2931    2.0785   49.0716 H       1  ZINC000951315041    0.0900
     35 H35        -6.7725    3.8580   50.7185 H       1  ZINC000951315041    0.0800
     36 H36        -6.2911    2.3569   51.5446 H       1  ZINC000951315041    0.0700
     37 H37        -5.2426    5.4519   52.9728 H       1  ZINC000951315041    0.4000
     38 H38        -6.7297    2.3816   55.9966 H       1  ZINC000951315041    0.1500
     39 H39        -7.5053    3.4503   58.1000 H       1  ZINC000951315041    0.1500
     40 H40        -7.4089    5.8987   58.3169 H       1  ZINC000951315041    0.1600
     41 H41        -5.8213    6.3039   54.5050 H       1  ZINC000951315041    0.1600
     42 H42        -3.9894    2.1819   52.5944 H       1  ZINC000951315041    0.0700
     43 H43        -2.7972    3.4647   52.2627 H       1  ZINC000951315041    0.0900
     44 H44        -1.7259   -0.4184   49.7591 H       1  ZINC000951315041    0.1400
     45 H45        -1.1276   -1.4955   47.6392 H       1  ZINC000951315041    0.1600
@<TRIPOS>BOND
     1     1     2    1
     2     1    27    1
     3     1    28    1
     4     1    29    1
     5     2    25   am
     6     2     3    1
     7     3     4    2
     8     3    30    1
     9     4     5    1
    10     4    23    1
    11     5     6    2
    12     5     7   am
    13     7    22    1
    14     7     8    1
    15     8     9    1
    16     8    31    1
    17     8    32    1
    18     9    10    1
    19     9    33    1
    20     9    34    1
    21    10    11    1
    22    10    35    1
    23    10    36    1
    24    11    12    1
    25    11    13    1
    26    11    22    1
    27    13    14   am
    28    13    37    1
    29    14    15    2
    30    14    16    1
    31    16    21   ar
    32    16    17   ar
    33    17    18   ar
    34    17    38    1
    35    18    19   ar
    36    18    39    1
    37    19    20   ar
    38    19    40    1
    39    20    21   ar
    40    21    41    1
    41    22    42    1
    42    22    43    1
    43    23    24    2
    44    23    44    1
    45    24    25    1
    46    24    45    1
    47    25    26    2
@<TRIPOS>SUBSTRUCTURE
     1 ZINC000951315041        1 TEMP              0 ****  ****    0 ROOT


##########                                Name:    ZINC000587344575
##########                DOCK_Rotatable_Bonds:                   7
##########                         Heavy_Atoms:                  30
##########                    Molecular_Weight:             408.475
##########                DOCK_Rotatable_Bonds:                   7
##########                       Formal_Charge:          -0.0100002
##########                     HBond_Acceptors:                   7
##########                        HBond_Donors:                   2
##########                         Heavy_Atoms:                  30
##########                          Grid_Score:          -27.090025
##########                     Grid_vdw_energy:          -27.000105
##########                      Grid_es_energy:           -0.089921
##########           Internal_energy_repulsive:           17.226940

@<TRIPOS>MOLECULE
ZINC000587344575
 55 57 1 0 0
SMALL
USER_CHARGES


@<TRIPOS>ATOM
      1 C1        -10.3158   -0.2238   52.3080 C.3     1  ZINC000587344575   -0.1200
      2 C2         -9.4890    0.8484   52.9696 C.ar    1  ZINC000587344575    0.0000
      3 C3         -8.4702    1.4600   52.2750 C.ar    1  ZINC000587344575   -0.1600
      4 C4         -7.7067    2.4505   52.8850 C.ar    1  ZINC000587344575    0.1800
      5 N5         -6.6756    3.0683   52.1782 N.am    1  ZINC000587344575   -0.6700
      6 C6         -5.6219    2.3438   51.7525 C.2     1  ZINC000587344575    0.5200
      7 O7         -5.5704    1.1545   51.9844 O.2     1  ZINC000587344575   -0.5000
      8 C8         -4.5075    3.0114   50.9886 C.3     1  ZINC000587344575   -0.1200
      9 H9         -4.4534    4.0690   51.2468 H       1  ZINC000587344575    0.1100
     10 C10        -4.7227    2.8408   49.4673 C.3     1  ZINC000587344575   -0.1200
     11 C11        -3.2871    2.5927   48.9399 C.3     1  ZINC000587344575    0.0400
     12 N12        -2.6722    1.7616   50.0064 N.3     1  ZINC000587344575   -0.4800
     13 C13        -1.2814    1.8153   49.9419 C.ar    1  ZINC000587344575    0.0700
     14 C14        -0.6180    2.9994   50.2448 C.ar    1  ZINC000587344575   -0.1200
     15 C15         0.7567    3.0566   50.1817 C.ar    1  ZINC000587344575   -0.0700
     16 C16         1.4863    1.9230   49.8132 C.ar    1  ZINC000587344575    0.0000
     17 C17         2.9157    1.9799   49.7474 C.1     1  ZINC000587344575    0.2500
     18 N18         4.0495    2.0249   49.6951 N.1     1  ZINC000587344575   -0.4000
     19 C19         0.8175    0.7329   49.5094 C.ar    1  ZINC000587344575   -0.1000
     20 C20        -0.5577    0.6807   49.5794 C.ar    1  ZINC000587344575    0.1300
     21 F21        -1.2054   -0.4682   49.2867 F       1  ZINC000587344575   -0.1200
     22 C22        -3.1650    2.3189   51.2873 C.3     1  ZINC000587344575    0.0500
     23 C23        -7.9700    2.8261   54.1983 C.ar    1  ZINC000587344575   -0.1400
     24 C24        -8.9876    2.2185   54.8989 C.ar    1  ZINC000587344575   -0.0600
     25 C25        -9.7597    1.2272   54.2875 C.ar    1  ZINC000587344575   -0.1600
     26 C26       -10.8518    0.5739   55.0354 C.2     1  ZINC000587344575    0.5600
     27 O27       -12.0042    0.9135   54.8489 O.2     1  ZINC000587344575   -0.5300
     28 N28       -10.5714   -0.3989   55.9249 N.am    1  ZINC000587344575   -0.7200
     29 C29       -11.6552   -1.0460   56.6685 C.3     1  ZINC000587344575    0.1400
     30 C30       -12.5140   -1.8685   55.7059 C.3     1  ZINC000587344575   -0.1600
     31 C31       -11.0618   -1.9670   57.7366 C.3     1  ZINC000587344575   -0.1600
     32 H32       -11.2318    0.2154   51.9131 H       1  ZINC000587344575    0.0800
     33 H33        -9.7463   -0.6705   51.4929 H       1  ZINC000587344575    0.0600
     34 H34       -10.5670   -0.9920   53.0393 H       1  ZINC000587344575    0.1000
     35 H35        -8.2629    1.1704   51.2553 H       1  ZINC000587344575    0.1300
     36 H36        -6.7167    4.0195   51.9928 H       1  ZINC000587344575    0.4100
     37 H37        -5.3627    1.9826   49.2620 H       1  ZINC000587344575    0.0900
     38 H38        -5.1417    3.7484   49.0328 H       1  ZINC000587344575    0.0900
     39 H39        -3.3127    2.0493   47.9954 H       1  ZINC000587344575    0.0900
     40 H40        -2.7501    3.5347   48.8286 H       1  ZINC000587344575    0.0600
     41 H41        -1.1817    3.8756   50.5296 H       1  ZINC000587344575    0.1400
     42 H42         1.2704    3.9771   50.4165 H       1  ZINC000587344575    0.1400
     43 H43         1.3783   -0.1450   49.2244 H       1  ZINC000587344575    0.1500
     44 H44        -2.4496    3.0433   51.6768 H       1  ZINC000587344575    0.0600
     45 H45        -3.3141    1.5156   52.0088 H       1  ZINC000587344575    0.1100
     46 H46        -7.3752    3.5950   54.6690 H       1  ZINC000587344575    0.1400
     47 H47        -9.1916    2.5105   55.9185 H       1  ZINC000587344575    0.1300
     48 H48        -9.6521   -0.6706   56.0729 H       1  ZINC000587344575    0.4000
     49 H49       -12.2723   -0.2855   57.1468 H       1  ZINC000587344575    0.0900
     50 H50       -11.8968   -2.6292   55.2277 H       1  ZINC000587344575    0.0600
     51 H51       -13.3203   -2.3500   56.2592 H       1  ZINC000587344575    0.0700
     52 H52       -12.9368   -1.2124   54.9450 H       1  ZINC000587344575    0.0600
     53 H53       -10.4446   -2.7277   57.2584 H       1  ZINC000587344575    0.0600
     54 H54       -10.4499   -1.3811   58.4224 H       1  ZINC000587344575    0.0600
     55 H55       -11.8681   -2.4485   58.2899 H       1  ZINC000587344575    0.0700
@<TRIPOS>BOND
     1     1     2    1
     2     1    32    1
     3     1    33    1
     4     1    34    1
     5     2    25   ar
     6     2     3   ar
     7     3     4   ar
     8     3    35    1
     9     4     5    1
    10     4    23   ar
    11     5     6   am
    12     5    36    1
    13     6     7    2
    14     6     8    1
    15     8     9    1
    16     8    22    1
    17     8    10    1
    18    10    11    1
    19    10    37    1
    20    10    38    1
    21    11    12    1
    22    11    39    1
    23    11    40    1
    24    12    13    1
    25    12    22    1
    26    13    20   ar
    27    13    14   ar
    28    14    15   ar
    29    14    41    1
    30    15    16   ar
    31    15    42    1
    32    16    17    1
    33    16    19   ar
    34    17    18    3
    35    19    20   ar
    36    19    43    1
    37    20    21    1
    38    22    44    1
    39    22    45    1
    40    23    24   ar
    41    23    46    1
    42    24    25   ar
    43    24    47    1
    44    25    26    1
    45    26    27    2
    46    26    28   am
    47    28    29    1
    48    28    48    1
    49    29    30    1
    50    29    31    1
    51    29    49    1
    52    30    50    1
    53    30    51    1
    54    30    52    1
    55    31    53    1
    56    31    54    1
    57    31    55    1
@<TRIPOS>SUBSTRUCTURE
     1 ZINC000587344575        1 TEMP              0 ****  ****    0 ROOT


##########                                Name:    ZINC000426567005
##########                DOCK_Rotatable_Bonds:                   9
##########                         Heavy_Atoms:                  31
##########                    Molecular_Weight:             417.467
##########                DOCK_Rotatable_Bonds:                   9
##########                       Formal_Charge:        -2.23517e-07
##########                     HBond_Acceptors:                   8
##########                        HBond_Donors:                   4
##########                         Heavy_Atoms:                  31
##########                          Grid_Score:          -27.083546
##########                     Grid_vdw_energy:          -25.788807
##########                      Grid_es_energy:           -1.294739
##########           Internal_energy_repulsive:           14.145626

@<TRIPOS>MOLECULE
ZINC000426567005
 54 57 1 0 0
SMALL
USER_CHARGES


@<TRIPOS>ATOM
      1 O1          0.1770    4.9090   57.2360 O.2     1  ZINC000426567005   -0.4900
      2 C2          0.0973    3.8463   56.6548 C.2     1  ZINC000426567005    0.5200
      3 N3         -0.1399    2.7152   57.3480 N.am    1  ZINC000426567005   -0.6000
      4 C4         -0.2886    2.7650   58.7385 C.2     1  ZINC000426567005    0.3000
      5 N5         -0.3498    3.8540   59.4692 N.2     1  ZINC000426567005   -0.3100
      6 N6         -0.4999    3.4731   60.8087 N.pl3   1  ZINC000426567005   -0.4600
      7 C7         -0.5268    2.1244   60.8598 C.2     1  ZINC000426567005    0.1100
      8 C8         -0.6745    1.2866   62.1037 C.3     1  ZINC000426567005   -0.0300
      9 C9          0.6948    1.1134   62.8065 C.3     1  ZINC000426567005   -0.1200
     10 C10         0.2913    0.8056   64.2699 C.3     1  ZINC000426567005   -0.1300
     11 C11        -0.9313    1.7114   64.5238 C.3     1  ZINC000426567005   -0.1300
     12 C12        -1.5454    2.0173   63.1465 C.3     1  ZINC000426567005   -0.1200
     13 C13        -0.4045    1.6587   59.5963 C.2     1  ZINC000426567005   -0.2600
     14 C14         0.2559    3.7932   55.1716 C.2     1  ZINC000426567005    0.5200
     15 O15         1.0149    2.9892   54.6708 O.2     1  ZINC000426567005   -0.4900
     16 N16        -0.4437    4.6379   54.3884 N.am    1  ZINC000426567005   -0.6400
     17 C17        -0.2957    4.5883   53.0044 C.ar    1  ZINC000426567005    0.1700
     18 C18        -1.2743    3.9814   52.2227 C.ar    1  ZINC000426567005   -0.1300
     19 C19        -1.1311    3.9307   50.8546 C.ar    1  ZINC000426567005   -0.0300
     20 C20        -0.0016    4.4900   50.2505 C.ar    1  ZINC000426567005   -0.1500
     21 C21         0.1549    4.4380   48.7840 C.2     1  ZINC000426567005    0.5600
     22 O22        -0.2307    5.3650   48.0981 O.2     1  ZINC000426567005   -0.5100
     23 N23         0.7253    3.3629   48.2049 N.am    1  ZINC000426567005   -0.6700
     24 C24         0.8736    3.3135   46.8152 C.ar    1  ZINC000426567005    0.1400
     25 C25         2.1224    3.5131   46.2411 C.ar    1  ZINC000426567005   -0.1500
     26 C26         2.2657    3.4631   44.8683 C.ar    1  ZINC000426567005   -0.1000
     27 C27         1.1673    3.2149   44.0656 C.ar    1  ZINC000426567005   -0.1300
     28 C28        -0.0775    3.0162   44.6340 C.ar    1  ZINC000426567005   -0.1000
     29 C29        -0.2265    3.0590   46.0064 C.ar    1  ZINC000426567005   -0.1200
     30 C30         0.9791    5.0992   51.0382 C.ar    1  ZINC000426567005   -0.0600
     31 C31         0.8276    5.1509   52.4055 C.ar    1  ZINC000426567005   -0.1400
     32 H32        -0.2078    1.8665   56.8832 H       1  ZINC000426567005    0.4300
     33 H33        -0.5719    4.0735   61.5672 H       1  ZINC000426567005    0.4400
     34 H34        -1.1057    0.3157   61.8595 H       1  ZINC000426567005    0.1100
     35 H35         1.2480    0.2795   62.3747 H       1  ZINC000426567005    0.0800
     36 H36         1.2762    2.0338   62.7517 H       1  ZINC000426567005    0.0700
     37 H37         0.0174   -0.2439   64.3774 H       1  ZINC000426567005    0.0700
     38 H38         1.1032    1.0606   64.9511 H       1  ZINC000426567005    0.0700
     39 H39        -1.6573    1.1921   65.1493 H       1  ZINC000426567005    0.0700
     40 H40        -0.6166    2.6369   65.0061 H       1  ZINC000426567005    0.0700
     41 H41        -1.5287    3.0911   62.9603 H       1  ZINC000426567005    0.0600
     42 H42        -2.5695    1.6463   63.1035 H       1  ZINC000426567005    0.0700
     43 H43        -0.3910    0.6203   59.2999 H       1  ZINC000426567005    0.1700
     44 H44        -1.0502    5.2805   54.7886 H       1  ZINC000426567005    0.4300
     45 H45        -2.1469    3.5494   52.6900 H       1  ZINC000426567005    0.1500
     46 H46        -1.8904    3.4590   50.2486 H       1  ZINC000426567005    0.1400
     47 H47         1.0329    2.6233   48.7521 H       1  ZINC000426567005    0.4100
     48 H48         2.9806    3.7074   46.8674 H       1  ZINC000426567005    0.1300
     49 H49         3.2364    3.6187   44.4213 H       1  ZINC000426567005    0.1300
     50 H50         1.2820    3.1763   42.9924 H       1  ZINC000426567005    0.1200
     51 H51        -0.9335    2.8231   44.0044 H       1  ZINC000426567005    0.1300
     52 H52        -1.1989    2.9035   46.4498 H       1  ZINC000426567005    0.1300
     53 H53         1.8532    5.5320   50.5745 H       1  ZINC000426567005    0.1300
     54 H54         1.5851    5.6215   53.0148 H       1  ZINC000426567005    0.1400
@<TRIPOS>BOND
     1     1     2    2
     2     2     3   am
     3     2    14    1
     4     3     4    1
     5     3    32    1
     6     4    13    1
     7     4     5    2
     8     5     6    1
     9     6     7    1
    10     6    33    1
    11     7     8    1
    12     7    13    2
    13     8    12    1
    14     8     9    1
    15     8    34    1
    16     9    10    1
    17     9    35    1
    18     9    36    1
    19    10    11    1
    20    10    37    1
    21    10    38    1
    22    11    12    1
    23    11    39    1
    24    11    40    1
    25    12    41    1
    26    12    42    1
    27    13    43    1
    28    14    15    2
    29    14    16   am
    30    16    17    1
    31    16    44    1
    32    17    31   ar
    33    17    18   ar
    34    18    19   ar
    35    18    45    1
    36    19    20   ar
    37    19    46    1
    38    20    21    1
    39    20    30   ar
    40    21    22    2
    41    21    23   am
    42    23    24    1
    43    23    47    1
    44    24    29   ar
    45    24    25   ar
    46    25    26   ar
    47    25    48    1
    48    26    27   ar
    49    26    49    1
    50    27    28   ar
    51    27    50    1
    52    28    29   ar
    53    28    51    1
    54    29    52    1
    55    30    31   ar
    56    30    53    1
    57    31    54    1
@<TRIPOS>SUBSTRUCTURE
     1 ZINC000426567005        1 TEMP              0 ****  ****    0 ROOT


##########                                Name:    ZINC000013551438
##########                DOCK_Rotatable_Bonds:                   5
##########                         Heavy_Atoms:                  27
##########                    Molecular_Weight:             377.467
##########                DOCK_Rotatable_Bonds:                   5
##########                       Formal_Charge:          -0.0300005
##########                     HBond_Acceptors:                   6
##########                        HBond_Donors:                   1
##########                         Heavy_Atoms:                  27
##########                          Grid_Score:          -27.083136
##########                     Grid_vdw_energy:          -25.878759
##########                      Grid_es_energy:           -1.204377
##########           Internal_energy_repulsive:            9.164811

@<TRIPOS>MOLECULE
ZINC000013551438
 46 49 1 0 0
SMALL
USER_CHARGES


@<TRIPOS>ATOM
      1 C1        -15.6959    2.0403   62.8019 C.3     1  <0>         0.0300
      2 O2        -15.1063    0.7397   62.7490 O.3     1  <0>        -0.3200
      3 C3        -13.7485    0.6787   62.7059 C.ar    1  <0>         0.1000
      4 C4        -12.9970    1.2050   63.7529 C.ar    1  <0>        -0.1800
      5 C5        -11.6211    1.1512   63.7244 C.ar    1  <0>        -0.0900
      6 C6        -10.9700    0.5670   62.6428 C.ar    1  <0>         0.0700
      7 C7        -11.7270    0.0346   61.5852 C.ar    1  <0>        -0.0400
      8 C8        -13.1199    0.0895   61.6262 C.ar    1  <0>        -0.1100
      9 C9        -10.7557   -0.4984   60.6168 C.2     1  <0>        -0.1200
     10 C10       -11.0655   -1.1634   59.3274 C.2     1  <0>         0.1700
     11 C11       -10.8763   -2.4800   59.1191 C.2     1  <0>        -0.3000
     12 S12       -11.3689   -2.8469   57.4682 S.3     1  <0>         0.2500
     13 C13       -11.7812   -1.2084   57.2112 C.2     1  <0>         0.2400
     14 N14       -12.2895   -0.6960   56.0250 N.am    1  <0>        -0.6200
     15 C15       -11.7723   -1.0899   54.8445 C.2     1  <0>         0.5600
     16 O16       -10.8617   -1.8949   54.8181 O.2     1  <0>        -0.5000
     17 C17       -12.3121   -0.5432   53.5819 C.ar    1  <0>        -0.1400
     18 C18       -11.7407   -0.9047   52.3606 C.ar    1  <0>        -0.0800
     19 C19       -12.2498   -0.3912   51.1856 C.ar    1  <0>        -0.1300
     20 C20       -13.3241    0.4802   51.2161 C.ar    1  <0>        -0.0800
     21 C21       -13.8947    0.8430   52.4232 C.ar    1  <0>        -0.1300
     22 C22       -13.3991    0.3323   53.6051 C.ar    1  <0>        -0.0500
     23 N23       -11.5586   -0.5134   58.2809 N.2     1  <0>        -0.5000
     24 C24        -9.5244   -0.2640   61.1296 C.2     1  <0>         0.1300
     25 C25        -8.2237   -0.6437   60.4699 C.3     1  <0>        -0.0900
     26 N26        -9.6394    0.3701   62.3361 N.pl3   1  <0>        -0.4800
     27 C27        -8.5139    0.7812   63.1791 C.3     1  <0>         0.0800
     28 H28       -15.4052    2.6073   61.9174 H       1  <0>         0.0500
     29 H29       -16.7815    1.9461   62.8325 H       1  <0>         0.1000
     30 H30       -15.3509    2.5595   63.6959 H       1  <0>         0.0500
     31 H31       -13.4974    1.6601   64.5948 H       1  <0>         0.1300
     32 H32       -11.0476    1.5629   64.5417 H       1  <0>         0.1200
     33 H33       -13.7035   -0.3189   60.8145 H       1  <0>         0.1300
     34 H34       -10.4901   -3.1872   59.8382 H       1  <0>         0.1800
     35 H35       -13.0168   -0.0546   56.0460 H       1  <0>         0.4200
     36 H36       -10.9020   -1.5845   52.3355 H       1  <0>         0.1300
     37 H37       -11.8085   -0.6697   50.2401 H       1  <0>         0.1300
     38 H38       -13.7187    0.8794   50.2934 H       1  <0>         0.1300
     39 H39       -14.7329    1.5239   52.4401 H       1  <0>         0.1300
     40 H40       -13.8457    0.6159   54.5466 H       1  <0>         0.1400
     41 H41        -7.8398    0.2071   59.9071 H       1  <0>         0.0800
     42 H42        -7.5000   -0.9313   61.2325 H       1  <0>         0.0700
     43 H43        -8.3906   -1.4816   59.7931 H       1  <0>         0.0800
     44 H44        -8.2106    1.7935   62.9120 H       1  <0>         0.0700
     45 H45        -8.8162    0.7568   64.2261 H       1  <0>         0.0800
     46 H46        -7.6775    0.0991   63.0264 H       1  <0>         0.0800
@<TRIPOS>BOND
     1     1     2    1
     2     1    28    1
     3     1    29    1
     4     1    30    1
     5     2     3    1
     6     3     8   ar
     7     3     4   ar
     8     4     5   ar
     9     4    31    1
    10     5     6   ar
    11     5    32    1
    12     6    26    1
    13     6     7   ar
    14     7     8   ar
    15     7     9    1
    16     8    33    1
    17     9    10    1
    18     9    24    2
    19    10    23    1
    20    10    11    2
    21    11    12    1
    22    11    34    1
    23    12    13    1
    24    13    14    1
    25    13    23    2
    26    14    15   am
    27    14    35    1
    28    15    16    2
    29    15    17    1
    30    17    22   ar
    31    17    18   ar
    32    18    19   ar
    33    18    36    1
    34    19    20   ar
    35    19    37    1
    36    20    21   ar
    37    20    38    1
    38    21    22   ar
    39    21    39    1
    40    22    40    1
    41    24    25    1
    42    24    26    1
    43    25    41    1
    44    25    42    1
    45    25    43    1
    46    26    27    1
    47    27    44    1
    48    27    45    1
    49    27    46    1
@<TRIPOS>SUBSTRUCTURE
     1 <0>         1 TEMP              0 ****  ****    0 ROOT


##########                                Name:    ZINC000443933644
##########                DOCK_Rotatable_Bonds:                   8
##########                         Heavy_Atoms:                  27
##########                    Molecular_Weight:             402.438
##########                DOCK_Rotatable_Bonds:                   8
##########                       Formal_Charge:          0.00999922
##########                     HBond_Acceptors:                   9
##########                        HBond_Donors:                   2
##########                         Heavy_Atoms:                  27
##########                          Grid_Score:          -27.071445
##########                     Grid_vdw_energy:          -24.876888
##########                      Grid_es_energy:           -2.194557
##########           Internal_energy_repulsive:           36.672108

@<TRIPOS>MOLECULE
ZINC000443933644
 48 49 1 0 0
SMALL
USER_CHARGES


@<TRIPOS>ATOM
      1 C1        -15.2474   -2.3404   55.3550 C.3     1  ZINC000443933644   -0.1500
      2 C2        -14.3115   -2.4263   56.5623 C.3     1  ZINC000443933644   -0.1400
      3 C3        -13.9991   -1.0161   57.0668 C.3     1  ZINC000443933644   -0.1000
      4 H4        -14.9247   -0.4464   57.1495 H       1  ZINC000443933644    0.1000
      5 C5        -13.0576   -0.3193   56.0826 C.3     1  ZINC000443933644   -0.1700
      6 C6        -13.3291   -1.1023   58.4396 C.3     1  ZINC000443933644    0.1200
      7 H7        -12.9216   -0.1273   58.7070 H       1  ZINC000443933644    0.1300
      8 N8        -12.2463   -2.0881   58.3935 N.am    1  ZINC000443933644   -1.1100
      9 S9        -11.0428   -2.0500   59.5303 S.o2    1  ZINC000443933644    2.6900
     10 O10       -11.6866   -2.0718   60.7970 O.2     1  ZINC000443933644   -0.9400
     11 O11       -10.0820   -3.0174   59.1301 O.2     1  ZINC000443933644   -0.9400
     12 C12       -10.2525   -0.4805   59.4008 C.ar    1  ZINC000443933644   -0.7000
     13 C13        -9.5055    0.0215   60.4798 C.ar    1  ZINC000443933644    0.0500
     14 C14        -9.3713   -0.7073   61.6744 C.ar    1  ZINC000443933644   -0.1400
     15 C15        -8.6400   -0.1913   62.6997 C.ar    1  ZINC000443933644   -0.0800
     16 C16        -8.0202    1.0514   62.5842 C.ar    1  ZINC000443933644   -0.1200
     17 C17        -8.1289    1.7850   61.4423 C.ar    1  ZINC000443933644   -0.0900
     18 C18        -8.8748    1.2848   60.3635 C.ar    1  ZINC000443933644   -0.0900
     19 C19        -9.0096    2.0166   59.1646 C.ar    1  ZINC000443933644    0.2300
     20 N20        -8.3972    3.2638   59.0281 N.am    1  ZINC000443933644   -0.6700
     21 C21        -7.3408    3.4093   58.2039 C.2     1  ZINC000443933644    0.5100
     22 C22        -6.6797    4.7555   58.0566 C.3     1  ZINC000443933644   -0.1700
     23 O23        -6.9223    2.4567   57.5807 O.2     1  ZINC000443933644   -0.5100
     24 C24        -9.7510    1.4891   58.1295 C.ar    1  ZINC000443933644   -0.1600
     25 C25       -10.3606    0.2442   58.2532 C.ar    1  ZINC000443933644    0.0400
     26 C26       -14.3618   -1.5277   59.4854 C.3     1  ZINC000443933644    0.4300
     27 F27       -15.6388   -1.1427   59.0632 F       1  ZINC000443933644   -0.1700
     28 F28       -14.3217   -2.9173   59.6421 F       1  ZINC000443933644   -0.1600
     29 F29       -14.0691   -0.9119   60.7070 F       1  ZINC000443933644   -0.1700
     30 H30       -16.1735   -1.8457   55.6476 H       1  ZINC000443933644    0.0500
     31 H31       -14.7653   -1.7692   54.5616 H       1  ZINC000443933644    0.0600
     32 H32       -15.4699   -3.3451   54.9955 H       1  ZINC000443933644    0.0600
     33 H33       -14.7936   -2.9976   57.3557 H       1  ZINC000443933644    0.0700
     34 H34       -13.3854   -2.9210   56.2697 H       1  ZINC000443933644    0.0900
     35 H35       -13.5768   -0.1529   55.1387 H       1  ZINC000443933644    0.0700
     36 H36       -12.7420    0.6381   56.4974 H       1  ZINC000443933644    0.0600
     37 H37       -12.1830   -0.9465   55.9104 H       1  ZINC000443933644    0.0700
     38 H38       -12.2344   -2.7632   57.6970 H       1  ZINC000443933644    0.4300
     39 H39        -9.8466   -1.6716   61.7782 H       1  ZINC000443933644    0.1400
     40 H40        -8.5389   -0.7531   63.6165 H       1  ZINC000443933644    0.1300
     41 H41        -7.4455    1.4384   63.4126 H       1  ZINC000443933644    0.1300
     42 H42        -7.6438    2.7469   61.3671 H       1  ZINC000443933644    0.1300
     43 H43        -8.7319    4.0256   59.5267 H       1  ZINC000443933644    0.4200
     44 H44        -7.1901    5.4820   58.6888 H       1  ZINC000443933644    0.0800
     45 H45        -5.6348    4.6820   58.3580 H       1  ZINC000443933644    0.1000
     46 H46        -6.7361    5.0760   57.0163 H       1  ZINC000443933644    0.1000
     47 H47        -9.8565    2.0463   57.2104 H       1  ZINC000443933644    0.1500
     48 H48       -10.9368   -0.1493   57.4288 H       1  ZINC000443933644    0.1500
@<TRIPOS>BOND
     1     1     2    1
     2     1    30    1
     3     1    31    1
     4     1    32    1
     5     2     3    1
     6     2    33    1
     7     2    34    1
     8     3     4    1
     9     3     5    1
    10     3     6    1
    11     5    35    1
    12     5    36    1
    13     5    37    1
    14     6     7    1
    15     6     8    1
    16     6    26    1
    17     8     9   am
    18     8    38    1
    19     9    10    2
    20     9    11    2
    21     9    12    1
    22    12    25   ar
    23    12    13   ar
    24    13    18   ar
    25    13    14   ar
    26    14    15   ar
    27    14    39    1
    28    15    16   ar
    29    15    40    1
    30    16    17   ar
    31    16    41    1
    32    17    18   ar
    33    17    42    1
    34    18    19   ar
    35    19    20    1
    36    19    24   ar
    37    20    21   am
    38    20    43    1
    39    21    22    1
    40    21    23    2
    41    22    44    1
    42    22    45    1
    43    22    46    1
    44    24    25   ar
    45    24    47    1
    46    25    48    1
    47    26    27    1
    48    26    28    1
    49    26    29    1
@<TRIPOS>SUBSTRUCTURE
     1 ZINC000443933644        1 TEMP              0 ****  ****    0 ROOT


##########                                Name:    ZINC000422507946
##########                DOCK_Rotatable_Bonds:                   7
##########                         Heavy_Atoms:                  25
##########                    Molecular_Weight:             364.484
##########                DOCK_Rotatable_Bonds:                   7
##########                       Formal_Charge:          0.00999952
##########                     HBond_Acceptors:                   6
##########                        HBond_Donors:                   1
##########                         Heavy_Atoms:                  25
##########                          Grid_Score:          -27.061937
##########                     Grid_vdw_energy:          -26.393492
##########                      Grid_es_energy:           -0.668446
##########           Internal_energy_repulsive:           34.976933

@<TRIPOS>MOLECULE
ZINC000422507946
 50 52 1 0 0
SMALL
USER_CHARGES


@<TRIPOS>ATOM
      1 C1         -6.3113    0.3371   51.6742 C.3     1  ZINC000422507946   -0.1400
      2 C2         -6.0226    1.5671   50.8113 C.3     1  ZINC000422507946   -0.0400
      3 H3         -6.6583    1.5668   49.9259 H       1  ZINC000422507946    0.1100
      4 C4         -4.5347    1.6018   50.4050 C.3     1  ZINC000422507946   -0.1400
      5 C5         -4.0755    3.0676   50.3169 C.3     1  ZINC000422507946    0.1400
      6 H6         -4.5103    3.5418   49.4372 H       1  ZINC000422507946    0.1100
      7 N7         -2.6135    3.1308   50.2481 N.am    1  ZINC000422507946   -0.6900
      8 C8         -1.9899    3.0308   49.0575 C.2     1  ZINC000422507946    0.5100
      9 O9         -2.6396    2.8900   48.0423 O.2     1  ZINC000422507946   -0.5000
     10 C10        -0.4984    3.0935   48.9876 C.2     1  ZINC000422507946    0.5100
     11 O11         0.0645    4.1685   48.9914 O.2     1  ZINC000422507946   -0.5200
     12 N12         0.2214    1.9560   48.9203 N.am    1  ZINC000422507946   -0.5700
     13 C13         1.6835    2.0175   48.8518 C.3     1  ZINC000422507946    0.1400
     14 C14         2.2500    2.0739   50.2471 C.ar    1  ZINC000422507946   -0.0800
     15 C15         3.4881    1.5199   50.5130 C.ar    1  ZINC000422507946   -0.1100
     16 C16         4.0091    1.5709   51.7927 C.ar    1  ZINC000422507946   -0.0900
     17 C17         3.2925    2.1760   52.8074 C.ar    1  ZINC000422507946   -0.1500
     18 C18         2.0521    2.7318   52.5420 C.ar    1  ZINC000422507946    0.1000
     19 F19         1.3506    3.3235   53.5334 F       1  ZINC000422507946   -0.1400
     20 C20         1.5338    2.6847   51.2592 C.ar    1  ZINC000422507946   -0.1500
     21 C21        -0.4582    0.6582   48.9158 C.3     1  ZINC000422507946    0.1400
     22 C22        -0.8754    0.2852   47.4783 C.3     1  ZINC000422507946   -0.1200
     23 C23         0.2750   -0.6198   46.9715 C.3     1  ZINC000422507946   -0.1300
     24 C24         0.6390   -1.4463   48.2299 C.3     1  ZINC000422507946   -0.1200
     25 C25         0.5047   -0.4428   49.3937 C.3     1  ZINC000422507946   -0.1600
     26 C26        -4.5775    3.7754   51.6030 C.3     1  ZINC000422507946   -0.0900
     27 S27        -6.2774    3.1001   51.7794 S.3     1  ZINC000422507946   -0.2700
     28 H28        -7.3586    0.3428   51.9762 H       1  ZINC000422507946    0.0700
     29 H29        -6.1035   -0.5661   51.1006 H       1  ZINC000422507946    0.0700
     30 H30        -5.6774    0.3584   52.5607 H       1  ZINC000422507946    0.0700
     31 H31        -3.9393    1.0762   51.1516 H       1  ZINC000422507946    0.0900
     32 H32        -4.4089    1.1202   49.4353 H       1  ZINC000422507946    0.0900
     33 H33        -2.0943    3.2446   51.0596 H       1  ZINC000422507946    0.4100
     34 H34         2.0609    1.1309   48.3420 H       1  ZINC000422507946    0.1100
     35 H35         1.9843    2.9088   48.3012 H       1  ZINC000422507946    0.1000
     36 H36         4.0488    1.0465   49.7206 H       1  ZINC000422507946    0.1400
     37 H37         4.9764    1.1374   51.9993 H       1  ZINC000422507946    0.1300
     38 H38         3.6994    2.2151   53.8070 H       1  ZINC000422507946    0.1400
     39 H39         0.5667    3.1181   51.0511 H       1  ZINC000422507946    0.1400
     40 H40        -1.3350    0.6939   49.5625 H       1  ZINC000422507946    0.1100
     41 H41        -1.8176   -0.2629   47.4845 H       1  ZINC000422507946    0.0800
     42 H42        -0.9575    1.1796   46.8606 H       1  ZINC000422507946    0.0600
     43 H43        -0.0707   -1.2707   46.1685 H       1  ZINC000422507946    0.0700
     44 H44         1.1238   -0.0190   46.6450 H       1  ZINC000422507946    0.0600
     45 H45        -0.0585   -2.2741   48.3575 H       1  ZINC000422507946    0.0700
     46 H46         1.6623   -1.8156   48.1607 H       1  ZINC000422507946    0.0700
     47 H47         1.4777   -0.0114   49.6290 H       1  ZINC000422507946    0.0900
     48 H48         0.0950   -0.9418   50.2717 H       1  ZINC000422507946    0.0800
     49 H49        -3.9607    3.5057   52.4603 H       1  ZINC000422507946    0.1000
     50 H50        -4.6025    4.8566   51.4663 H       1  ZINC000422507946    0.1100
@<TRIPOS>BOND
     1     1     2    1
     2     1    28    1
     3     1    29    1
     4     1    30    1
     5     2     3    1
     6     2    27    1
     7     2     4    1
     8     4     5    1
     9     4    31    1
    10     4    32    1
    11     5     6    1
    12     5     7    1
    13     5    26    1
    14     7     8   am
    15     7    33    1
    16     8     9    2
    17     8    10    1
    18    10    11    2
    19    10    12   am
    20    12    13    1
    21    12    21    1
    22    13    14    1
    23    13    34    1
    24    13    35    1
    25    14    20   ar
    26    14    15   ar
    27    15    16   ar
    28    15    36    1
    29    16    17   ar
    30    16    37    1
    31    17    18   ar
    32    17    38    1
    33    18    19    1
    34    18    20   ar
    35    20    39    1
    36    21    25    1
    37    21    22    1
    38    21    40    1
    39    22    23    1
    40    22    41    1
    41    22    42    1
    42    23    24    1
    43    23    43    1
    44    23    44    1
    45    24    25    1
    46    24    45    1
    47    24    46    1
    48    25    47    1
    49    25    48    1
    50    26    27    1
    51    26    49    1
    52    26    50    1
@<TRIPOS>SUBSTRUCTURE
     1 ZINC000422507946        1 TEMP              0 ****  ****    0 ROOT


##########                                Name:    ZINC000285228948
##########                DOCK_Rotatable_Bonds:                   8
##########                         Heavy_Atoms:                  23
##########                    Molecular_Weight:             339.822
##########                DOCK_Rotatable_Bonds:                   8
##########                       Formal_Charge:           0.0299997
##########                     HBond_Acceptors:                   7
##########                        HBond_Donors:                   3
##########                         Heavy_Atoms:                  23
##########                          Grid_Score:          -27.041555
##########                     Grid_vdw_energy:          -26.615526
##########                      Grid_es_energy:           -0.426029
##########           Internal_energy_repulsive:           20.495651

@<TRIPOS>MOLECULE
ZINC000285228948
 45 46 1 0 0
SMALL
USER_CHARGES


@<TRIPOS>ATOM
      1 C1         -6.2245    4.1359   50.2449 C.3     1  <0>        -0.1600
      2 C2         -5.4332    3.1464   51.1026 C.3     1  <0>         0.1800
      3 H3         -5.8221    2.1399   50.9484 H       1  <0>         0.1100
      4 C4         -5.5696    3.5205   52.5560 C.ar    1  <0>        -0.0900
      5 C5         -5.6864    4.8492   52.9195 C.ar    1  <0>        -0.1000
      6 C6         -5.8116    5.1929   54.2523 C.ar    1  <0>        -0.1100
      7 C7         -5.8199    4.2070   55.2228 C.ar    1  <0>        -0.0300
      8 Cl8        -5.9776    4.6379   56.8971 Cl      1  <0>        -0.0700
      9 C9         -5.7029    2.8774   54.8585 C.ar    1  <0>        -0.1100
     10 C10        -5.5836    2.5345   53.5249 C.ar    1  <0>        -0.0900
     11 N11        -4.0202    3.1882   50.7181 N.am    1  <0>        -0.6100
     12 C12        -3.1180    4.1557   51.3477 C.3     1  <0>         0.0600
     13 C13        -3.5501    2.3365   49.7852 C.2     1  <0>         0.5200
     14 O14        -4.2967    1.5345   49.2652 O.2     1  <0>        -0.5200
     15 C15        -2.0970    2.3806   49.3884 C.3     1  <0>         0.0300
     16 N16        -1.7922    1.2373   48.5179 N.3     1  <0>        -0.4900
     17 C17        -1.0707    0.1763   49.2660 C.3     1  <0>         0.0400
     18 C18        -0.3912   -0.6489   48.1444 C.3     1  <0>        -0.1400
     19 C19         0.0251    0.4340   47.1225 C.3     1  <0>         0.1100
     20 O20         1.3942    0.7961   47.3136 O.3     1  <0>        -0.5400
     21 C21        -0.1922   -0.0626   45.7164 C.2     1  <0>         0.5000
     22 N22         0.7025    0.2310   44.7522 N.am    1  <0>        -0.8500
     23 O23        -1.1723   -0.7264   45.4524 O.2     1  <0>        -0.5200
     24 C24        -0.8916    1.6363   47.4147 C.3     1  <0>         0.0600
     25 H25        -7.2759    4.1048   50.5309 H       1  <0>         0.0700
     26 H26        -5.8356    5.1425   50.3990 H       1  <0>         0.0600
     27 H27        -6.1259    3.8654   49.1936 H       1  <0>         0.0700
     28 H28        -5.6795    5.6188   52.1618 H       1  <0>         0.1400
     29 H29        -5.9024    6.2310   54.5362 H       1  <0>         0.1300
     30 H30        -5.7091    2.1073   55.6157 H       1  <0>         0.1400
     31 H31        -5.4926    1.4967   53.2404 H       1  <0>         0.1300
     32 H32        -2.7065    3.7274   52.2616 H       1  <0>         0.0600
     33 H33        -2.3060    4.3954   50.6611 H       1  <0>         0.0800
     34 H34        -3.6702    5.0640   51.5885 H       1  <0>         0.0800
     35 H35        -1.8945    3.3086   48.8536 H       1  <0>         0.1100
     36 H36        -1.4748    2.3330   50.2820 H       1  <0>         0.0700
     37 H37        -0.3236    0.6130   49.9287 H       1  <0>         0.0400
     38 H38        -1.7707   -0.4420   49.8282 H       1  <0>         0.1200
     39 H39         0.4836   -1.1741   48.5277 H       1  <0>         0.0900
     40 H40        -1.0978   -1.3488   47.6983 H       1  <0>         0.0900
     41 H41         1.9845    0.0430   47.4531 H       1  <0>         0.3800
     42 H42         0.5621   -0.0876   43.8469 H       1  <0>         0.4000
     43 H43         1.4870    0.7610   44.9637 H       1  <0>         0.4100
     44 H44        -1.4763    1.8815   46.5281 H       1  <0>         0.1100
     45 H45        -0.2924    2.4953   47.7168 H       1  <0>         0.0700
@<TRIPOS>BOND
     1     1     2    1
     2     1    25    1
     3     1    26    1
     4     1    27    1
     5     2     3    1
     6     2     4    1
     7     2    11    1
     8     4    10   ar
     9     4     5   ar
    10     5     6   ar
    11     5    28    1
    12     6     7   ar
    13     6    29    1
    14     7     8    1
    15     7     9   ar
    16     9    10   ar
    17     9    30    1
    18    10    31    1
    19    11    12    1
    20    11    13   am
    21    12    32    1
    22    12    33    1
    23    12    34    1
    24    13    14    2
    25    13    15    1
    26    15    16    1
    27    15    35    1
    28    15    36    1
    29    16    24    1
    30    16    17    1
    31    17    18    1
    32    17    37    1
    33    17    38    1
    34    18    19    1
    35    18    39    1
    36    18    40    1
    37    19    20    1
    38    19    21    1
    39    19    24    1
    40    20    41    1
    41    21    22   am
    42    21    23    2
    43    22    42    1
    44    22    43    1
    45    24    44    1
    46    24    45    1
@<TRIPOS>SUBSTRUCTURE
     1 <0>         1 TEMP              0 ****  ****    0 ROOT


##########                                Name:    ZINC000054627026
##########                DOCK_Rotatable_Bonds:                   5
##########                         Heavy_Atoms:                  28
##########                    Molecular_Weight:              370.37
##########                DOCK_Rotatable_Bonds:                   5
##########                       Formal_Charge:         6.85453e-07
##########                     HBond_Acceptors:                   8
##########                        HBond_Donors:                   2
##########                         Heavy_Atoms:                  28
##########                          Grid_Score:          -26.879646
##########                     Grid_vdw_energy:          -25.364084
##########                      Grid_es_energy:           -1.515563
##########           Internal_energy_repulsive:            3.350509

@<TRIPOS>MOLECULE
ZINC000054627026
 42 46 1 0 0
SMALL
USER_CHARGES


@<TRIPOS>ATOM
      1 O1        -10.5773    0.9971   55.2669 O.2     1  ZINC000054627026   -0.5200
      2 C2        -10.8303   -0.0733   55.7856 C.2     1  ZINC000054627026    0.6100
      3 N3        -11.3753   -1.0649   55.0533 N.am    1  ZINC000054627026   -0.6500
      4 C4        -11.6557   -0.8606   53.6965 C.ar    1  ZINC000054627026    0.1400
      5 C5        -10.6674   -1.0933   52.7423 C.ar    1  ZINC000054627026   -0.0900
      6 C6        -10.9304   -0.8964   51.4035 C.ar    1  ZINC000054627026   -0.0900
      7 C7        -12.1854   -0.4641   51.0001 C.ar    1  ZINC000054627026    0.0500
      8 N8        -12.7496   -0.1802   49.7686 N.pl3   1  ZINC000054627026   -0.5900
      9 C9        -14.0435    0.2112   49.9969 C.2     1  ZINC000054627026    0.3700
     10 C10       -15.0050    0.6045   48.9563 C.2     1  ZINC000054627026    0.0200
     11 C11       -16.2966    0.9880   49.1636 C.2     1  ZINC000054627026   -0.1200
     12 C12       -16.8421    1.2729   47.8987 C.2     1  ZINC000054627026   -0.2200
     13 C13       -15.8700    1.0527   46.9893 C.2     1  ZINC000054627026   -0.0100
     14 O14       -14.7614    0.6544   47.6314 O.3     1  ZINC000054627026   -0.1700
     15 N15       -14.2943    0.1813   51.2862 N.2     1  ZINC000054627026   -0.4600
     16 C16       -13.1894   -0.2265   51.9561 C.ar    1  ZINC000054627026    0.0700
     17 C17       -12.9130   -0.4346   53.3111 C.ar    1  ZINC000054627026   -0.0900
     18 C18       -10.5350   -0.2886   57.2145 C.2     1  ZINC000054627026   -0.1000
     19 C19        -9.8529    0.5720   58.0275 C.2     1  ZINC000054627026    0.1000
     20 N20        -9.8045   -0.0013   59.2497 N.pl3   1  ZINC000054627026   -0.3100
     21 C21        -9.2002    0.5285   60.3987 C.ar    1  ZINC000054627026    0.1300
     22 C22        -8.8141   -0.3136   61.4327 C.ar    1  ZINC000054627026   -0.1200
     23 C23        -8.2186    0.2111   62.5630 C.ar    1  ZINC000054627026   -0.1000
     24 C24        -8.0072    1.5738   62.6657 C.ar    1  ZINC000054627026   -0.1100
     25 C25        -8.3911    2.4151   61.6375 C.ar    1  ZINC000054627026   -0.1000
     26 C26        -8.9814    1.8955   60.5021 C.ar    1  ZINC000054627026   -0.1000
     27 N27       -10.4757   -1.2282   59.1480 N.2     1  ZINC000054627026   -0.0500
     28 N28       -10.8967   -1.3619   57.9386 N.2     1  ZINC000054627026   -0.2000
     29 H29       -11.5733   -1.9201   55.4660 H       1  ZINC000054627026    0.4200
     30 H30        -9.6895   -1.4295   53.0535 H       1  ZINC000054627026    0.1500
     31 H31       -10.1597   -1.0783   50.6689 H       1  ZINC000054627026    0.1300
     32 H32       -12.3114   -0.2455   48.9056 H       1  ZINC000054627026    0.4300
     33 H33       -16.8032    1.0588   50.1148 H       1  ZINC000054627026    0.1600
     34 H34       -17.8492    1.6049   47.6941 H       1  ZINC000054627026    0.1600
     35 H35       -15.9673    1.1795   45.9212 H       1  ZINC000054627026    0.2100
     36 H36       -13.6778   -0.2605   54.0536 H       1  ZINC000054627026    0.1400
     37 H37        -9.4329    1.5265   57.7469 H       1  ZINC000054627026    0.2100
     38 H38        -8.9795   -1.3779   61.3535 H       1  ZINC000054627026    0.1400
     39 H39        -7.9180   -0.4434   63.3678 H       1  ZINC000054627026    0.1400
     40 H40        -7.5417    1.9819   63.5506 H       1  ZINC000054627026    0.1400
     41 H41        -8.2250    3.4790   61.7206 H       1  ZINC000054627026    0.1400
     42 H42        -9.2811    2.5531   59.6995 H       1  ZINC000054627026    0.1400
@<TRIPOS>BOND
     1     1     2    2
     2     2     3   am
     3     2    18    1
     4     3     4    1
     5     3    29    1
     6     4    17   ar
     7     4     5   ar
     8     5     6   ar
     9     5    30    1
    10     6     7   ar
    11     6    31    1
    12     7    16   ar
    13     7     8    1
    14     8     9    1
    15     8    32    1
    16     9    10    1
    17     9    15    2
    18    10    14    1
    19    10    11    2
    20    11    12    1
    21    11    33    1
    22    12    13    2
    23    12    34    1
    24    13    14    1
    25    13    35    1
    26    15    16    1
    27    16    17   ar
    28    17    36    1
    29    18    28    1
    30    18    19    2
    31    19    20    1
    32    19    37    1
    33    20    21    1
    34    20    27    1
    35    21    26   ar
    36    21    22   ar
    37    22    23   ar
    38    22    38    1
    39    23    24   ar
    40    23    39    1
    41    24    25   ar
    42    24    40    1
    43    25    26   ar
    44    25    41    1
    45    26    42    1
    46    27    28    2
@<TRIPOS>SUBSTRUCTURE
     1 ZINC000054627026        1 TEMP              0 ****  ****    0 ROOT


##########                                Name:    ZINC000192150625
##########                DOCK_Rotatable_Bonds:                   5
##########                         Heavy_Atoms:                  28
##########                    Molecular_Weight:             377.443
##########                DOCK_Rotatable_Bonds:                   5
##########                       Formal_Charge:           0.0199997
##########                     HBond_Acceptors:                   6
##########                        HBond_Donors:                   1
##########                         Heavy_Atoms:                  28
##########                          Grid_Score:          -26.857126
##########                     Grid_vdw_energy:          -27.129984
##########                      Grid_es_energy:            0.272858
##########           Internal_energy_repulsive:           15.642356

@<TRIPOS>MOLECULE
ZINC000192150625
 51 54 1 0 0
SMALL
USER_CHARGES


@<TRIPOS>ATOM
      1 C1         -2.0188    4.5706   53.1489 C.3     1  ZINC000192150625   -0.0800
      2 C2         -3.2415    3.8033   52.7158 C.2     1  ZINC000192150625    0.0400
      3 C3         -4.4431    3.8802   53.3035 C.2     1  ZINC000192150625   -0.1800
      4 C4         -4.8166    4.7281   54.4920 C.3     1  ZINC000192150625   -0.0800
      5 C5         -5.3228    2.9725   52.5568 C.ar    1  ZINC000192150625   -0.1000
      6 C6         -6.6637    2.6096   52.6652 C.ar    1  ZINC000192150625   -0.0700
      7 C7         -7.1983    1.6975   51.7716 C.ar    1  ZINC000192150625    0.1200
      8 N8         -8.5435    1.3274   51.8725 N.am    1  ZINC000192150625   -0.6400
      9 C9         -8.8723    0.0454   52.1273 C.2     1  ZINC000192150625    0.5100
     10 O10        -8.0012   -0.7879   52.2693 O.2     1  ZINC000192150625   -0.4900
     11 C11       -10.3085   -0.3498   52.2350 C.2     1  ZINC000192150625    0.5100
     12 O12       -10.8242   -1.0085   51.3557 O.2     1  ZINC000192150625   -0.5200
     13 N13       -11.0319    0.0250   53.3086 N.am    1  ZINC000192150625   -0.5800
     14 C14       -12.4441   -0.3614   53.4317 C.3     1  ZINC000192150625    0.0500
     15 C15       -12.6492   -1.0569   54.7812 C.3     1  ZINC000192150625   -0.1200
     16 C16       -12.1472   -0.1443   55.9025 C.3     1  ZINC000192150625   -0.0500
     17 C17       -12.3786   -0.8110   57.2340 C.ar    1  ZINC000192150625   -0.0300
     18 C18       -11.4122   -1.6327   57.7937 C.ar    1  ZINC000192150625   -0.1700
     19 C19       -11.6597   -2.2272   59.0166 C.ar    1  ZINC000192150625    0.1000
     20 N20       -12.7985   -2.0208   59.6488 N.ar    1  ZINC000192150625   -0.4900
     21 C21       -13.7399   -1.2457   59.1465 C.ar    1  ZINC000192150625    0.1000
     22 C22       -13.5606   -0.6129   57.9310 C.ar    1  ZINC000192150625   -0.1700
     23 C23       -10.6511    0.1187   55.7170 C.3     1  ZINC000192150625   -0.1200
     24 C24       -10.4217    0.8224   54.3812 C.3     1  ZINC000192150625    0.1100
     25 C25        -6.3987    1.1477   50.7715 C.ar    1  ZINC000192150625   -0.1100
     26 C26        -5.0725    1.5025   50.6592 C.ar    1  ZINC000192150625   -0.0800
     27 C27        -4.5190    2.4164   51.5472 C.ar    1  ZINC000192150625    0.0500
     28 O28        -3.2858    2.9472   51.6803 O.3     1  ZINC000192150625   -0.1900
     29 H29        -1.1833    4.3222   52.4944 H       1  ZINC000192150625    0.0800
     30 H30        -2.2211    5.6399   53.0900 H       1  ZINC000192150625    0.0900
     31 H31        -1.7676    4.3043   54.1756 H       1  ZINC000192150625    0.0900
     32 H32        -5.1654    5.7020   54.1482 H       1  ZINC000192150625    0.0700
     33 H33        -5.6099    4.2359   55.0546 H       1  ZINC000192150625    0.0700
     34 H34        -3.9447    4.8598   55.1327 H       1  ZINC000192150625    0.0700
     35 H35        -7.2815    3.0367   53.4414 H       1  ZINC000192150625    0.1400
     36 H36        -9.2396    1.9933   51.7591 H       1  ZINC000192150625    0.4300
     37 H37       -13.0721    0.5280   53.3799 H       1  ZINC000192150625    0.0700
     38 H38       -12.7077   -1.0449   52.6246 H       1  ZINC000192150625    0.1600
     39 H39       -13.7097   -1.2628   54.9269 H       1  ZINC000192150625    0.0800
     40 H40       -12.0910   -1.9930   54.7966 H       1  ZINC000192150625    0.0700
     41 H41       -12.6886    0.8013   55.8708 H       1  ZINC000192150625    0.0900
     42 H42       -10.4779   -1.8061   57.2805 H       1  ZINC000192150625    0.1300
     43 H43       -10.9121   -2.8685   59.4594 H       1  ZINC000192150625    0.1600
     44 H44       -14.6598   -1.1007   59.6933 H       1  ZINC000192150625    0.1600
     45 H45       -14.3352    0.0209   57.5250 H       1  ZINC000192150625    0.1300
     46 H46       -10.2892    0.7498   56.5289 H       1  ZINC000192150625    0.0800
     47 H47       -10.1116   -0.8284   55.7237 H       1  ZINC000192150625    0.0700
     48 H48        -9.3515    0.9227   54.2000 H       1  ZINC000192150625    0.1000
     49 H49       -10.8846    1.8089   54.4035 H       1  ZINC000192150625    0.0800
     50 H50        -6.8227    0.4364   50.0783 H       1  ZINC000192150625    0.1400
     51 H51        -4.4624    1.0700   49.8801 H       1  ZINC000192150625    0.1400
@<TRIPOS>BOND
     1     1     2    1
     2     1    29    1
     3     1    30    1
     4     1    31    1
     5     2    28    1
     6     2     3    2
     7     3     4    1
     8     3     5    1
     9     4    32    1
    10     4    33    1
    11     4    34    1
    12     5    27   ar
    13     5     6   ar
    14     6     7   ar
    15     6    35    1
    16     7     8    1
    17     7    25   ar
    18     8     9   am
    19     8    36    1
    20     9    10    2
    21     9    11    1
    22    11    12    2
    23    11    13   am
    24    13    24    1
    25    13    14    1
    26    14    15    1
    27    14    37    1
    28    14    38    1
    29    15    16    1
    30    15    39    1
    31    15    40    1
    32    16    17    1
    33    16    23    1
    34    16    41    1
    35    17    22   ar
    36    17    18   ar
    37    18    19   ar
    38    18    42    1
    39    19    20   ar
    40    19    43    1
    41    20    21   ar
    42    21    22   ar
    43    21    44    1
    44    22    45    1
    45    23    24    1
    46    23    46    1
    47    23    47    1
    48    24    48    1
    49    24    49    1
    50    25    26   ar
    51    25    50    1
    52    26    27   ar
    53    26    51    1
    54    27    28    1
@<TRIPOS>SUBSTRUCTURE
     1 ZINC000192150625        1 TEMP              0 ****  ****    0 ROOT


##########                                Name:    ZINC000341804698
##########                DOCK_Rotatable_Bonds:                   7
##########                         Heavy_Atoms:                  24
##########                    Molecular_Weight:             342.318
##########                DOCK_Rotatable_Bonds:                   7
##########                       Formal_Charge:                0.02
##########                     HBond_Acceptors:                   8
##########                        HBond_Donors:                   0
##########                         Heavy_Atoms:                  24
##########                          Grid_Score:          -26.851631
##########                     Grid_vdw_energy:          -26.920692
##########                      Grid_es_energy:            0.069061
##########           Internal_energy_repulsive:           29.460644

@<TRIPOS>MOLECULE
ZINC000341804698
 41 42 1 0 0
SMALL
USER_CHARGES


@<TRIPOS>ATOM
      1 C1          0.5030    4.4910   42.8048 C.3     1  ZINC000341804698    0.0300
      2 O2          0.3452    3.8223   44.0578 O.3     1  ZINC000341804698   -0.3900
      3 C3          1.1730    2.6673   44.2086 C.3     1  ZINC000341804698    0.0700
      4 C4          0.5778    1.7494   45.2782 C.3     1  ZINC000341804698    0.0400
      5 C5          0.0593    0.5272   44.6423 C.1     1  ZINC000341804698    0.2200
      6 N6         -0.3408   -0.4160   44.1517 N.1     1  ZINC000341804698   -0.4200
      7 C7          1.6627    1.3761   46.2909 C.3     1  ZINC000341804698   -0.1200
      8 C8          1.0719    0.4296   47.3406 C.3     1  ZINC000341804698    0.1100
      9 N9         -0.1147    1.0618   47.9330 N.am    1  ZINC000341804698   -0.6000
     10 C10        -0.2241    1.2004   49.2691 C.2     1  ZINC000341804698    0.5700
     11 O11         0.6640    0.8004   49.9963 O.2     1  ZINC000341804698   -0.5200
     12 C12        -1.4243    1.8388   49.8504 C.ar    1  ZINC000341804698   -0.0900
     13 C13        -1.3626    3.1531   50.3157 C.ar    1  ZINC000341804698   -0.1100
     14 C14        -2.4847    3.7459   50.8578 C.ar    1  ZINC000341804698   -0.0800
     15 C15        -3.6714    3.0418   50.9420 C.ar    1  ZINC000341804698   -0.1700
     16 C16        -3.7424    1.7336   50.4822 C.ar    1  ZINC000341804698    0.1100
     17 O17        -4.9115    1.0459   50.5678 O.3     1  ZINC000341804698   -0.3100
     18 C18        -6.0071    1.7057   51.2055 C.3     1  ZINC000341804698    0.6000
     19 F19        -6.3397    2.8587   50.4864 F       1  ZINC000341804698   -0.1600
     20 F20        -7.1101    0.8461   51.2450 F       1  ZINC000341804698   -0.1300
     21 F21        -5.6437    2.0582   52.5097 F       1  ZINC000341804698   -0.1600
     22 C22        -2.6243    1.1313   49.9307 C.ar    1  ZINC000341804698   -0.0700
     23 C23        -1.1795    1.5407   47.0411 C.3     1  ZINC000341804698    0.0900
     24 C24        -0.5635    2.4748   45.9949 C.3     1  ZINC000341804698   -0.1200
     25 H25         1.5365    4.8195   42.6959 H       1  ZINC000341804698    0.0400
     26 H26         0.2518    3.8072   41.9939 H       1  ZINC000341804698    0.0500
     27 H27        -0.1591    5.3560   42.7687 H       1  ZINC000341804698    0.0900
     28 H28         1.2271    2.1328   43.2602 H       1  ZINC000341804698    0.0700
     29 H29         2.1744    2.9748   44.5100 H       1  ZINC000341804698    0.0600
     30 H30         2.4857    0.8803   45.7762 H       1  ZINC000341804698    0.1000
     31 H31         2.0298    2.2784   46.7801 H       1  ZINC000341804698    0.0900
     32 H32         0.7871   -0.5098   46.8666 H       1  ZINC000341804698    0.0700
     33 H33         1.8113    0.2393   48.1185 H       1  ZINC000341804698    0.1100
     34 H34        -0.4370    3.7060   50.2518 H       1  ZINC000341804698    0.1400
     35 H35        -2.4356    4.7630   51.2178 H       1  ZINC000341804698    0.1400
     36 H36        -4.5464    3.5108   51.3671 H       1  ZINC000341804698    0.1400
     37 H37        -2.6781    0.1139   49.5724 H       1  ZINC000341804698    0.1500
     38 H38        -1.6479    0.6919   46.5427 H       1  ZINC000341804698    0.0800
     39 H39        -1.9257    2.0836   47.6213 H       1  ZINC000341804698    0.1100
     40 H40        -0.1755    3.3667   46.4868 H       1  ZINC000341804698    0.1000
     41 H41        -1.3250    2.7610   45.2693 H       1  ZINC000341804698    0.0900
@<TRIPOS>BOND
     1     1     2    1
     2     1    25    1
     3     1    26    1
     4     1    27    1
     5     2     3    1
     6     3     4    1
     7     3    28    1
     8     3    29    1
     9     4    24    1
    10     4     5    1
    11     4     7    1
    12     5     6    3
    13     7     8    1
    14     7    30    1
    15     7    31    1
    16     8     9    1
    17     8    32    1
    18     8    33    1
    19     9    10   am
    20     9    23    1
    21    10    11    2
    22    10    12    1
    23    12    22   ar
    24    12    13   ar
    25    13    14   ar
    26    13    34    1
    27    14    15   ar
    28    14    35    1
    29    15    16   ar
    30    15    36    1
    31    16    17    1
    32    16    22   ar
    33    17    18    1
    34    18    19    1
    35    18    20    1
    36    18    21    1
    37    22    37    1
    38    23    24    1
    39    23    38    1
    40    23    39    1
    41    24    40    1
    42    24    41    1
@<TRIPOS>SUBSTRUCTURE
     1 ZINC000341804698        1 TEMP              0 ****  ****    0 ROOT


##########                                Name:    ZINC000337709254
##########                DOCK_Rotatable_Bonds:                   7
##########                         Heavy_Atoms:                  22
##########                    Molecular_Weight:              329.42
##########                DOCK_Rotatable_Bonds:                   7
##########                       Formal_Charge:           0.0300004
##########                     HBond_Acceptors:                   8
##########                        HBond_Donors:                   2
##########                         Heavy_Atoms:                  22
##########                          Grid_Score:          -26.845837
##########                     Grid_vdw_energy:          -26.072777
##########                      Grid_es_energy:           -0.773061
##########           Internal_energy_repulsive:           10.029825

@<TRIPOS>MOLECULE
ZINC000337709254
 45 46 1 0 0
SMALL
USER_CHARGES


@<TRIPOS>ATOM
      1 C1         -5.8734    1.9420   49.8168 C.3     1  ZINC000337709254   -0.6700
      2 S2         -5.5848    2.3328   51.5646 S.o2    1  ZINC000337709254    2.6100
      3 O3         -6.7007    3.0212   52.1124 O.2     1  ZINC000337709254   -0.9500
      4 O4         -5.0084    1.2206   52.2355 O.2     1  ZINC000337709254   -0.9500
      5 N5         -4.3774    3.4659   51.5407 N.am    1  ZINC000337709254   -1.1200
      6 C6         -3.0769    3.1381   50.9513 C.3     1  ZINC000337709254    0.1200
      7 C7         -2.0371    4.1637   51.4076 C.3     1  ZINC000337709254   -0.1100
      8 H8         -2.4594    5.1684   51.3877 H       1  ZINC000337709254    0.1100
      9 C9         -1.5233    3.8197   52.8278 C.3     1  ZINC000337709254   -0.1200
     10 C10        -0.1402    4.5156   52.8687 C.3     1  ZINC000337709254   -0.1200
     11 C11         0.4287    4.3104   51.4496 C.3     1  ZINC000337709254   -0.1400
     12 C12        -0.7788    4.0891   50.5184 C.3     1  ZINC000337709254    0.1500
     13 H13        -0.8096    4.8672   49.7556 H       1  ZINC000337709254    0.1000
     14 N14        -0.6899    2.7705   49.8863 N.am    1  ZINC000337709254   -0.7200
     15 C15         0.2474    2.5353   48.9469 C.2     1  ZINC000337709254    0.5300
     16 O16         1.0185    3.4148   48.6260 O.2     1  ZINC000337709254   -0.5100
     17 C17         0.3377    1.1794   48.2953 C.3     1  ZINC000337709254    0.0200
     18 C18         1.7345    0.9051   47.9208 C.1     1  ZINC000337709254    0.2000
     19 N19         2.8126    0.6933   47.6317 N.1     1  ZINC000337709254   -0.3900
     20 C20        -0.1525    0.1073   49.2734 C.3     1  ZINC000337709254   -0.1500
     21 C21        -0.1316   -1.2558   48.5768 C.3     1  ZINC000337709254    0.0600
     22 O22        -0.9457   -1.2023   47.4035 O.3     1  ZINC000337709254   -0.3700
     23 C23        -0.5074   -0.2503   46.4321 C.3     1  ZINC000337709254    0.0600
     24 C24        -0.5434    1.1533   47.0426 C.3     1  ZINC000337709254   -0.1300
     25 H25        -6.1742    2.8460   49.2873 H       1  ZINC000337709254    0.1300
     26 H26        -4.9567    1.5506   49.3758 H       1  ZINC000337709254    0.1300
     27 H27        -6.6629    1.1946   49.7371 H       1  ZINC000337709254    0.1300
     28 H28        -4.5312    4.3466   51.9170 H       1  ZINC000337709254    0.4200
     29 H29        -2.7717    2.1430   51.2747 H       1  ZINC000337709254    0.0600
     30 H30        -3.1550    3.1589   49.8643 H       1  ZINC000337709254    0.0900
     31 H31        -2.1860    4.2320   53.5886 H       1  ZINC000337709254    0.0800
     32 H32        -1.4171    2.7417   52.9495 H       1  ZINC000337709254    0.0700
     33 H33        -0.2540    5.5780   53.0843 H       1  ZINC000337709254    0.0700
     34 H34         0.5034    4.0419   53.6100 H       1  ZINC000337709254    0.0700
     35 H35         0.9814    5.1965   51.1371 H       1  ZINC000337709254    0.0800
     36 H36         1.0810    3.4374   51.4315 H       1  ZINC000337709254    0.0700
     37 H37        -1.3058    2.0668   50.1437 H       1  ZINC000337709254    0.4000
     38 H38         0.5028    0.0815   50.1440 H       1  ZINC000337709254    0.0900
     39 H39        -1.1697    0.3396   49.5887 H       1  ZINC000337709254    0.1100
     40 H40         0.8920   -1.5058   48.2978 H       1  ZINC000337709254    0.0500
     41 H41        -0.5199   -2.0163   49.2543 H       1  ZINC000337709254    0.1100
     42 H42         0.5114   -0.4871   46.1250 H       1  ZINC000337709254    0.0500
     43 H43        -1.1663   -0.2864   45.5647 H       1  ZINC000337709254    0.1100
     44 H44        -1.5684    1.4067   47.3129 H       1  ZINC000337709254    0.1100
     45 H45        -0.1676    1.8754   46.3178 H       1  ZINC000337709254    0.0900
@<TRIPOS>BOND
     1     1     2    1
     2     1    25    1
     3     1    26    1
     4     1    27    1
     5     2     3    2
     6     2     4    2
     7     2     5   am
     8     5     6    1
     9     5    28    1
    10     6     7    1
    11     6    29    1
    12     6    30    1
    13     7     8    1
    14     7    12    1
    15     7     9    1
    16     9    10    1
    17     9    31    1
    18     9    32    1
    19    10    11    1
    20    10    33    1
    21    10    34    1
    22    11    12    1
    23    11    35    1
    24    11    36    1
    25    12    13    1
    26    12    14    1
    27    14    15   am
    28    14    37    1
    29    15    16    2
    30    15    17    1
    31    17    24    1
    32    17    18    1
    33    17    20    1
    34    18    19    3
    35    20    21    1
    36    20    38    1
    37    20    39    1
    38    21    22    1
    39    21    40    1
    40    21    41    1
    41    22    23    1
    42    23    24    1
    43    23    42    1
    44    23    43    1
    45    24    44    1
    46    24    45    1
@<TRIPOS>SUBSTRUCTURE
     1 ZINC000337709254        1 TEMP              0 ****  ****    0 ROOT


##########                                Name:    ZINC001053792610
##########                DOCK_Rotatable_Bonds:                   5
##########                         Heavy_Atoms:                  25
##########                    Molecular_Weight:             347.374
##########                DOCK_Rotatable_Bonds:                   5
##########                       Formal_Charge:          -0.0400001
##########                     HBond_Acceptors:                   9
##########                        HBond_Donors:                   2
##########                         Heavy_Atoms:                  25
##########                          Grid_Score:          -26.826042
##########                     Grid_vdw_energy:          -27.084003
##########                      Grid_es_energy:            0.257962
##########           Internal_energy_repulsive:            5.099343

@<TRIPOS>MOLECULE
ZINC001053792610
 46 49 1 0 0
SMALL
USER_CHARGES


@<TRIPOS>ATOM
      1 C1         -7.7554    0.8264   52.1515 C.3     1  ZINC001053792610   -0.1000
      2 C2         -6.4791    1.3585   51.5521 C.ar    1  ZINC001053792610    0.0800
      3 C3         -5.3286    1.4204   52.3179 C.ar    1  ZINC001053792610    0.0600
      4 N4         -4.2094    1.8870   51.7924 N.ar    1  ZINC001053792610   -0.4200
      5 C5         -4.1892    2.2944   50.5357 C.ar    1  ZINC001053792610    0.0800
      6 C6         -2.9129    2.8261   49.9363 C.3     1  ZINC001053792610    0.0700
      7 N7         -1.8987    1.7635   49.9221 N.3     1  ZINC001053792610   -0.4500
      8 C8         -0.7878    2.1046   49.0117 C.3     1  ZINC001053792610   -0.0100
      9 C9         -0.8103    0.6527   48.5381 C.3     1  ZINC001053792610    0.0800
     10 C10        -2.2714    0.6888   48.9812 C.3     1  ZINC001053792610   -0.0100
     11 C11        -0.5878    0.4526   47.0307 C.3     1  ZINC001053792610   -0.1500
     12 C12         0.8106   -0.2261   46.9984 C.3     1  ZINC001053792610    0.1100
     13 H13         0.9141   -0.8705   46.1254 H       1  ZINC001053792610    0.1200
     14 N14         1.8825    0.7715   47.0436 N.am    1  ZINC001053792610   -0.7100
     15 C15         2.4352    1.2195   45.8989 C.2     1  ZINC001053792610    0.5000
     16 O16         2.0441    0.7976   44.8312 O.2     1  ZINC001053792610   -0.5100
     17 C17         3.5389    2.2443   45.9456 C.3     1  ZINC001053792610    0.0800
     18 H18         4.5134    1.7561   45.9503 H       1  ZINC001053792610    0.1300
     19 C19         3.4262    3.2159   44.7549 C.3     1  ZINC001053792610    0.0500
     20 O20         3.2251    4.5170   45.3792 O.3     1  ZINC001053792610   -0.3200
     21 C21         3.2153    4.3767   46.7095 C.2     1  ZINC001053792610    0.6500
     22 O22         3.0634    5.3093   47.4735 O.2     1  ZINC001053792610   -0.5100
     23 N23         3.3896    3.1112   47.1245 N.am    1  ZINC001053792610   -0.7100
     24 C24         0.7666   -1.0591   48.3050 C.3     1  ZINC001053792610    0.0400
     25 O25         0.0362   -0.2492   49.2437 O.3     1  ZINC001053792610   -0.3300
     26 C26        -5.3401    2.2326   49.7697 C.ar    1  ZINC001053792610    0.0600
     27 N27        -6.4577    1.7610   50.2936 N.ar    1  ZINC001053792610   -0.4400
     28 H28        -7.8078   -0.2512   51.9967 H       1  ZINC001053792610    0.0800
     29 H29        -7.7722    1.0412   53.2200 H       1  ZINC001053792610    0.0800
     30 H30        -8.6092    1.3044   51.6712 H       1  ZINC001053792610    0.0800
     31 H31        -5.3452    1.0876   53.3451 H       1  ZINC001053792610    0.1700
     32 H32        -3.1024    3.1611   48.9164 H       1  ZINC001053792610    0.1000
     33 H33        -2.5528    3.6641   50.5329 H       1  ZINC001053792610    0.0600
     34 H34        -1.0647    2.8191   48.2366 H       1  ZINC001053792610    0.0800
     35 H35         0.1309    2.3785   49.5304 H       1  ZINC001053792610    0.0900
     36 H36        -2.5990   -0.2265   49.4742 H       1  ZINC001053792610    0.1000
     37 H37        -2.9554    1.0149   48.1977 H       1  ZINC001053792610    0.0800
     38 H38        -1.3489   -0.2034   46.6085 H       1  ZINC001053792610    0.1000
     39 H39        -0.5681    1.4098   46.5096 H       1  ZINC001053792610    0.1000
     40 H40         2.1944    1.1098   47.8976 H       1  ZINC001053792610    0.4000
     41 H41         4.3455    3.2110   44.1694 H       1  ZINC001053792610    0.1200
     42 H42         2.5721    2.9562   44.1293 H       1  ZINC001053792610    0.1100
     43 H43         3.4107    2.8186   48.0492 H       1  ZINC001053792610    0.4400
     44 H44         0.2473   -2.0022   48.1350 H       1  ZINC001053792610    0.0800
     45 H45         1.7770   -1.2433   48.6703 H       1  ZINC001053792610    0.0900
     46 H46        -5.3237    2.5656   48.7425 H       1  ZINC001053792610    0.1600
@<TRIPOS>BOND
     1     1     2    1
     2     1    28    1
     3     1    29    1
     4     1    30    1
     5     2    27   ar
     6     2     3   ar
     7     3     4   ar
     8     3    31    1
     9     4     5   ar
    10     5     6    1
    11     5    26   ar
    12     6     7    1
    13     6    32    1
    14     6    33    1
    15     7    10    1
    16     7     8    1
    17     8     9    1
    18     8    34    1
    19     8    35    1
    20     9    25    1
    21     9    10    1
    22     9    11    1
    23    10    36    1
    24    10    37    1
    25    11    12    1
    26    11    38    1
    27    11    39    1
    28    12    13    1
    29    12    14    1
    30    12    24    1
    31    14    15   am
    32    14    40    1
    33    15    16    2
    34    15    17    1
    35    17    18    1
    36    17    23    1
    37    17    19    1
    38    19    20    1
    39    19    41    1
    40    19    42    1
    41    20    21    1
    42    21    22    2
    43    21    23   am
    44    23    43    1
    45    24    25    1
    46    24    44    1
    47    24    45    1
    48    26    27   ar
    49    26    46    1
@<TRIPOS>SUBSTRUCTURE
     1 ZINC001053792610        1 TEMP              0 ****  ****    0 ROOT


##########                                Name:    ZINC000517001504
##########                DOCK_Rotatable_Bonds:                   5
##########                         Heavy_Atoms:                  29
##########                    Molecular_Weight:             403.401
##########                DOCK_Rotatable_Bonds:                   5
##########                       Formal_Charge:          -0.0200002
##########                     HBond_Acceptors:                   7
##########                        HBond_Donors:                   0
##########                         Heavy_Atoms:                  29
##########                          Grid_Score:          -26.814217
##########                     Grid_vdw_energy:          -26.980803
##########                      Grid_es_energy:            0.166585
##########           Internal_energy_repulsive:           41.570091

@<TRIPOS>MOLECULE
ZINC000517001504
 49 52 1 0 0
SMALL
USER_CHARGES


@<TRIPOS>ATOM
      1 O1         -1.2902    0.3660   46.9453 O.2     1  ZINC000517001504   -0.5200
      2 C2         -0.6570    1.3811   47.1447 C.2     1  ZINC000517001504    0.5400
      3 N3         -1.1986    2.3824   47.8663 N.am    1  ZINC000517001504   -0.6100
      4 C4         -0.4475    3.6208   48.1263 C.3     1  ZINC000517001504    0.0600
      5 C5         -0.4998    3.9110   49.6306 C.3     1  ZINC000517001504    0.0500
      6 O6         -1.8610    3.8906   50.0670 O.3     1  ZINC000517001504   -0.3700
      7 C7         -2.5079    2.6258   49.9069 C.3     1  ZINC000517001504    0.1200
      8 H8         -1.9491    1.8603   50.4454 H       1  ZINC000517001504    0.0800
      9 C9         -3.9097    2.7046   50.4546 C.ar    1  ZINC000517001504   -0.0600
     10 C10        -4.9562    3.0643   49.6261 C.ar    1  ZINC000517001504   -0.0900
     11 C11        -6.2420    3.1366   50.1285 C.ar    1  ZINC000517001504   -0.0700
     12 C12        -6.4813    2.8487   51.4592 C.ar    1  ZINC000517001504   -0.1800
     13 C13        -7.8830    2.9280   52.0071 C.3     1  ZINC000517001504    0.5100
     14 F14        -8.4333    1.6432   52.0678 F       1  ZINC000517001504   -0.1800
     15 F15        -7.8513    3.4830   53.2908 F       1  ZINC000517001504   -0.1800
     16 F16        -8.6657    3.7313   51.1708 F       1  ZINC000517001504   -0.1800
     17 C17        -5.4350    2.4877   52.2874 C.ar    1  ZINC000517001504   -0.0700
     18 C18        -4.1498    2.4117   51.7840 C.ar    1  ZINC000517001504   -0.1000
     19 C19        -2.5606    2.2720   48.4119 C.3     1  ZINC000517001504    0.0900
     20 C20         0.7375    1.5202   46.5909 C.3     1  ZINC000517001504   -0.0600
     21 C21         0.8838    2.6962   45.6599 C.ar    1  ZINC000517001504   -0.0700
     22 C22         1.7777    3.7074   45.9588 C.ar    1  ZINC000517001504   -0.1200
     23 C23         1.9118    4.7860   45.1047 C.ar    1  ZINC000517001504   -0.1100
     24 C24         1.1524    4.8533   43.9516 C.ar    1  ZINC000517001504   -0.1100
     25 C25         0.2592    3.8416   43.6523 C.ar    1  ZINC000517001504   -0.1100
     26 C26         0.1282    2.7609   44.5041 C.ar    1  ZINC000517001504   -0.1000
     27 C27         1.8384    1.4379   47.6623 C.3     1  ZINC000517001504   -0.1600
     28 C28         1.8451   -0.0580   47.4175 C.2     1  ZINC000517001504    0.3600
     29 O29         2.1455   -1.0381   48.0557 O.2     1  ZINC000517001504   -0.4100
     30 C30         1.3105    0.2096   46.0245 C.3     1  ZINC000517001504   -0.1900
     31 H31         0.5887    3.4944   47.8125 H       1  ZINC000517001504    0.1000
     32 H32        -0.8997    4.4466   47.5772 H       1  ZINC000517001504    0.0800
     33 H33         0.0663    3.1502   50.1680 H       1  ZINC000517001504    0.0600
     34 H34        -0.0691    4.8928   49.8272 H       1  ZINC000517001504    0.1100
     35 H35        -4.7692    3.2892   48.5865 H       1  ZINC000517001504    0.1400
     36 H36        -7.0596    3.4183   49.4815 H       1  ZINC000517001504    0.1400
     37 H37        -5.6221    2.2624   53.3269 H       1  ZINC000517001504    0.1400
     38 H38        -3.3323    2.1296   52.4311 H       1  ZINC000517001504    0.1400
     39 H39        -3.2264    2.9627   47.8946 H       1  ZINC000517001504    0.0800
     40 H40        -2.9222    1.2512   48.2889 H       1  ZINC000517001504    0.1100
     41 H41         2.3709    3.6549   46.8597 H       1  ZINC000517001504    0.1300
     42 H42         2.6096    5.5765   45.3386 H       1  ZINC000517001504    0.1300
     43 H43         1.2567    5.6964   43.2848 H       1  ZINC000517001504    0.1300
     44 H44        -0.3343    3.8943   42.7515 H       1  ZINC000517001504    0.1300
     45 H45        -0.5696    1.9704   44.2702 H       1  ZINC000517001504    0.1200
     46 H46         2.7664    1.9324   47.3752 H       1  ZINC000517001504    0.1300
     47 H47         1.4995    1.7165   48.6601 H       1  ZINC000517001504    0.1100
     48 H48         0.5470   -0.4998   45.7051 H       1  ZINC000517001504    0.1000
     49 H49         2.0904    0.3594   45.2779 H       1  ZINC000517001504    0.1400
@<TRIPOS>BOND
     1     1     2    2
     2     2     3   am
     3     2    20    1
     4     3    19    1
     5     3     4    1
     6     4     5    1
     7     4    31    1
     8     4    32    1
     9     5     6    1
    10     5    33    1
    11     5    34    1
    12     6     7    1
    13     7     8    1
    14     7     9    1
    15     7    19    1
    16     9    18   ar
    17     9    10   ar
    18    10    11   ar
    19    10    35    1
    20    11    12   ar
    21    11    36    1
    22    12    13    1
    23    12    17   ar
    24    13    14    1
    25    13    15    1
    26    13    16    1
    27    17    18   ar
    28    17    37    1
    29    18    38    1
    30    19    39    1
    31    19    40    1
    32    20    30    1
    33    20    21    1
    34    20    27    1
    35    21    26   ar
    36    21    22   ar
    37    22    23   ar
    38    22    41    1
    39    23    24   ar
    40    23    42    1
    41    24    25   ar
    42    24    43    1
    43    25    26   ar
    44    25    44    1
    45    26    45    1
    46    27    28    1
    47    27    46    1
    48    27    47    1
    49    28    29    2
    50    28    30    1
    51    30    48    1
    52    30    49    1
@<TRIPOS>SUBSTRUCTURE
     1 ZINC000517001504        1 TEMP              0 ****  ****    0 ROOT


##########                                Name:    ZINC000768148687
##########                DOCK_Rotatable_Bonds:                   8
##########                         Heavy_Atoms:                  25
##########                    Molecular_Weight:             371.307
##########                DOCK_Rotatable_Bonds:                   8
##########                       Formal_Charge:         2.98023e-08
##########                     HBond_Acceptors:                  11
##########                        HBond_Donors:                   0
##########                         Heavy_Atoms:                  25
##########                          Grid_Score:          -26.808058
##########                     Grid_vdw_energy:          -26.373859
##########                      Grid_es_energy:           -0.434199
##########           Internal_energy_repulsive:            9.609947

@<TRIPOS>MOLECULE
ZINC000768148687
 43 44 1 0 0
SMALL
USER_CHARGES


@<TRIPOS>ATOM
      1 C1          0.0789   -0.7178   49.3767 C.3     1  ZINC000768148687   -0.1800
      2 C2         -0.4800    0.4231   48.5241 C.3     1  ZINC000768148687    0.1100
      3 N3         -1.3010    1.3014   49.3613 N.pl3   1  ZINC000768148687   -0.3100
      4 N4         -2.6934    1.2425   49.4880 N.2     1  ZINC000768148687   -0.2000
      5 C5         -3.0825    2.1733   50.3146 C.2     1  ZINC000768148687    0.0200
      6 C6         -4.5045    2.4530   50.7277 C.3     1  ZINC000768148687    0.5500
      7 F7         -5.3805    1.8999   49.7876 F       1  ZINC000768148687   -0.1600
      8 F8         -4.7464    1.8831   51.9822 F       1  ZINC000768148687   -0.1600
      9 F9         -4.7068    3.8355   50.7967 F       1  ZINC000768148687   -0.1500
     10 C10        -1.9366    2.8738   50.7550 C.2     1  ZINC000768148687   -0.1800
     11 C11        -1.9117    4.0057   51.6971 C.2     1  ZINC000768148687    0.5300
     12 O12        -1.7342    5.1352   51.2854 O.2     1  ZINC000768148687   -0.4700
     13 O13        -2.0858    3.7888   53.0157 O.3     1  ZINC000768148687   -0.3400
     14 C14        -2.1390    4.9582   53.8747 C.3     1  ZINC000768148687    0.0200
     15 C15        -2.3278    4.5159   55.3271 C.3     1  ZINC000768148687    0.0600
     16 N16        -1.2366    3.6096   55.7089 N.3     1  ZINC000768148687   -0.5300
     17 C17        -1.4925    3.0008   57.0223 C.3     1  ZINC000768148687    0.0100
     18 C18        -0.3635    2.0212   57.3535 C.3     1  ZINC000768148687    0.0600
     19 O19         0.8879    2.7122   57.3117 O.3     1  ZINC000768148687   -0.3800
     20 C20         1.1697    3.3168   56.0466 C.3     1  ZINC000768148687    0.0600
     21 C21         0.0562    4.3096   55.7022 C.3     1  ZINC000768148687    0.0100
     22 C22        -0.8437    2.2941   50.1404 C.2     1  ZINC000768148687    0.0600
     23 C23         0.5961    2.7069   50.3062 C.3     1  ZINC000768148687    0.3400
     24 F24         0.7857    3.9737   49.7437 F       1  ZINC000768148687   -0.1700
     25 F25         0.9155    2.7485   51.6675 F       1  ZINC000768148687   -0.1800
     26 H26         0.6898   -1.3712   48.7538 H       1  ZINC000768148687    0.0900
     27 H27         0.6902   -0.3057   50.1795 H       1  ZINC000768148687    0.0700
     28 H28        -0.7449   -1.2893   49.8040 H       1  ZINC000768148687    0.0700
     29 H29         0.3438    0.9947   48.0968 H       1  ZINC000768148687    0.1100
     30 H30        -1.0913    0.0110   47.7213 H       1  ZINC000768148687    0.1200
     31 H31        -1.2085    5.5185   53.7836 H       1  ZINC000768148687    0.0800
     32 H32        -2.9749    5.5907   53.5759 H       1  ZINC000768148687    0.0800
     33 H33        -2.3180    5.3905   55.9775 H       1  ZINC000768148687    0.1100
     34 H34        -3.2819    3.9987   55.4283 H       1  ZINC000768148687    0.0900
     35 H35        -1.5330    3.7803   57.7831 H       1  ZINC000768148687    0.0500
     36 H36        -2.4423    2.4664   56.9969 H       1  ZINC000768148687    0.0900
     37 H37        -0.5192    1.6101   58.3509 H       1  ZINC000768148687    0.1000
     38 H38        -0.3574    1.2124   56.6227 H       1  ZINC000768148687    0.0600
     39 H39         2.1229    3.8428   56.0989 H       1  ZINC000768148687    0.1000
     40 H40         1.2204    2.5458   55.2779 H       1  ZINC000768148687    0.0600
     41 H41         0.2371    4.7306   54.7133 H       1  ZINC000768148687    0.0800
     42 H42         0.0406    5.1100   56.4420 H       1  ZINC000768148687    0.0700
     43 H43         1.2410    1.9860   49.8036 H       1  ZINC000768148687    0.1500
@<TRIPOS>BOND
     1     1     2    1
     2     1    26    1
     3     1    27    1
     4     1    28    1
     5     2     3    1
     6     2    29    1
     7     2    30    1
     8     3    22    1
     9     3     4    1
    10     4     5    2
    11     5     6    1
    12     5    10    1
    13     6     7    1
    14     6     8    1
    15     6     9    1
    16    10    11    1
    17    10    22    2
    18    11    12    2
    19    11    13    1
    20    13    14    1
    21    14    15    1
    22    14    31    1
    23    14    32    1
    24    15    16    1
    25    15    33    1
    26    15    34    1
    27    16    21    1
    28    16    17    1
    29    17    18    1
    30    17    35    1
    31    17    36    1
    32    18    19    1
    33    18    37    1
    34    18    38    1
    35    19    20    1
    36    20    21    1
    37    20    39    1
    38    20    40    1
    39    21    41    1
    40    21    42    1
    41    22    23    1
    42    23    24    1
    43    23    25    1
    44    23    43    1
@<TRIPOS>SUBSTRUCTURE
     1 ZINC000768148687        1 TEMP              0 ****  ****    0 ROOT


##########                                Name:    ZINC000010935976
##########                DOCK_Rotatable_Bonds:                   3
##########                         Heavy_Atoms:                  26
##########                    Molecular_Weight:             391.558
##########                DOCK_Rotatable_Bonds:                   3
##########                       Formal_Charge:         -0.00999979
##########                     HBond_Acceptors:                   7
##########                        HBond_Donors:                   1
##########                         Heavy_Atoms:                  26
##########                          Grid_Score:          -26.769625
##########                     Grid_vdw_energy:          -26.024759
##########                      Grid_es_energy:           -0.744865
##########           Internal_energy_repulsive:          127.619423

@<TRIPOS>MOLECULE
ZINC000010935976
 51 54 1 0 0
SMALL
USER_CHARGES


@<TRIPOS>ATOM
      1 C1         -8.4576    0.3279   61.7229 C.3     1  ZINC000010935976   -0.0800
      2 C2         -9.1819    0.0220   60.4373 C.2     1  ZINC000010935976   -0.2100
      3 C3        -10.4244   -0.4146   60.3692 C.2     1  ZINC000010935976   -0.0400
      4 C4        -11.2677   -0.6580   61.5943 C.3     1  ZINC000010935976   -0.1000
      5 C5        -10.9171   -0.6422   59.0233 C.2     1  ZINC000010935976   -0.2300
      6 C6         -9.9576   -0.3471   58.0574 C.2     1  ZINC000010935976    0.0900
      7 N7        -10.2545   -0.5048   56.7521 N.2     1  ZINC000010935976   -0.4900
      8 C8        -11.4314   -0.9317   56.3620 C.2     1  ZINC000010935976    0.3400
      9 S9        -11.7519   -1.1154   54.6391 S.3     1  ZINC000010935976    0.0500
     10 C10       -12.6599    0.4181   54.3230 C.3     1  ZINC000010935976   -0.1000
     11 H11       -13.5625    0.4417   54.9336 H       1  ZINC000010935976    0.1400
     12 C12       -13.0386    0.4956   52.8420 C.3     1  ZINC000010935976   -0.1000
     13 C13       -11.9562   -0.1245   51.9772 C.3     1  ZINC000010935976   -0.1300
     14 C14       -10.6480    0.6450   51.9870 C.3     1  ZINC000010935976   -0.1400
     15 C15        -9.9892    0.5827   53.3664 C.3     1  ZINC000010935976    0.0700
     16 N16       -10.5328    1.6689   54.1976 N.am    1  ZINC000010935976   -0.7200
     17 C17       -11.7850    1.6066   54.6622 C.2     1  ZINC000010935976    0.5400
     18 O18       -12.2198    2.5056   55.3504 O.2     1  ZINC000010935976   -0.5200
     19 N19       -12.4140   -1.2377   57.2586 N.am    1  ZINC000010935976   -0.5100
     20 C20       -13.7151   -1.7122   56.7812 C.3     1  ZINC000010935976    0.1200
     21 C21       -13.8591   -3.2237   57.0544 C.3     1  ZINC000010935976   -0.1300
     22 C22       -14.6290   -3.2955   58.3964 C.3     1  ZINC000010935976   -0.1300
     23 C23       -15.6396   -2.1281   58.2736 C.3     1  ZINC000010935976   -0.1100
     24 C24       -14.8471   -1.0156   57.5564 C.3     1  ZINC000010935976   -0.1200
     25 C25       -12.1921   -1.1061   58.5808 C.2     1  ZINC000010935976    0.5600
     26 O26       -13.0663   -1.3777   59.3860 O.2     1  ZINC000010935976   -0.5000
     27 S27        -8.4833    0.2079   58.8400 S.3     1  ZINC000010935976    0.2100
     28 H28        -7.4494    0.6758   61.4979 H       1  ZINC000010935976    0.0700
     29 H29        -8.9963    1.1031   62.2678 H       1  ZINC000010935976    0.0800
     30 H30        -8.4032   -0.5739   62.3327 H       1  ZINC000010935976    0.0800
     31 H31       -11.8091    0.2530   61.8495 H       1  ZINC000010935976    0.0700
     32 H32       -11.9789   -1.4589   61.3925 H       1  ZINC000010935976    0.0800
     33 H33       -10.6249   -0.9439   62.4268 H       1  ZINC000010935976    0.0700
     34 H34       -13.9753   -0.0386   52.6827 H       1  ZINC000010935976    0.0900
     35 H35       -13.1695    1.5401   52.5592 H       1  ZINC000010935976    0.0900
     36 H36       -11.7665   -1.1379   52.3307 H       1  ZINC000010935976    0.0700
     37 H37       -12.3198   -0.1795   50.9511 H       1  ZINC000010935976    0.0800
     38 H38        -9.9731    0.2140   51.2477 H       1  ZINC000010935976    0.0800
     39 H39       -10.8427    1.6861   51.7296 H       1  ZINC000010935976    0.0700
     40 H40       -10.2066   -0.3784   53.8325 H       1  ZINC000010935976    0.1100
     41 H41        -8.9111    0.7060   53.2627 H       1  ZINC000010935976    0.0900
     42 H42        -9.9781    2.4351   54.4124 H       1  ZINC000010935976    0.4000
     43 H43       -13.8161   -1.5137   55.7141 H       1  ZINC000010935976    0.1000
     44 H44       -14.4320   -3.7021   56.2599 H       1  ZINC000010935976    0.0800
     45 H45       -12.8783   -3.6889   57.1519 H       1  ZINC000010935976    0.0700
     46 H46       -15.1495   -4.2484   58.4927 H       1  ZINC000010935976    0.0600
     47 H47       -13.9546   -3.1357   59.2376 H       1  ZINC000010935976    0.1100
     48 H48       -16.4999   -2.4295   57.6761 H       1  ZINC000010935976    0.0600
     49 H49       -15.9579   -1.7937   59.2609 H       1  ZINC000010935976    0.0700
     50 H50       -14.4284   -0.3246   58.2879 H       1  ZINC000010935976    0.0800
     51 H51       -15.4979   -0.4797   56.8655 H       1  ZINC000010935976    0.0700
@<TRIPOS>BOND
     1     1     2    1
     2     1    28    1
     3     1    29    1
     4     1    30    1
     5     2    27    1
     6     2     3    2
     7     3     4    1
     8     3     5    1
     9     4    31    1
    10     4    32    1
    11     4    33    1
    12     5    25    1
    13     5     6    2
    14     6     7    1
    15     6    27    1
    16     7     8    2
    17     8     9    1
    18     8    19    1
    19     9    10    1
    20    10    11    1
    21    10    17    1
    22    10    12    1
    23    12    13    1
    24    12    34    1
    25    12    35    1
    26    13    14    1
    27    13    36    1
    28    13    37    1
    29    14    15    1
    30    14    38    1
    31    14    39    1
    32    15    16    1
    33    15    40    1
    34    15    41    1
    35    16    17   am
    36    16    42    1
    37    17    18    2
    38    19    20    1
    39    19    25   am
    40    20    24    1
    41    20    21    1
    42    20    43    1
    43    21    22    1
    44    21    44    1
    45    21    45    1
    46    22    23    1
    47    22    46    1
    48    22    47    1
    49    23    24    1
    50    23    48    1
    51    23    49    1
    52    24    50    1
    53    24    51    1
    54    25    26    2
@<TRIPOS>SUBSTRUCTURE
     1 ZINC000010935976        1 TEMP              0 ****  ****    0 ROOT


##########                                Name:    ZINC000057429281
##########                DOCK_Rotatable_Bonds:                  10
##########                         Heavy_Atoms:                  23
##########                    Molecular_Weight:             331.295
##########                DOCK_Rotatable_Bonds:                  10
##########                       Formal_Charge:          -0.0100002
##########                     HBond_Acceptors:                   9
##########                        HBond_Donors:                   5
##########                         Heavy_Atoms:                  23
##########                          Grid_Score:          -26.766220
##########                     Grid_vdw_energy:          -26.708061
##########                      Grid_es_energy:           -0.058158
##########           Internal_energy_repulsive:            8.968196

@<TRIPOS>MOLECULE
ZINC000057429281
 39 39 1 0 0
SMALL
USER_CHARGES


@<TRIPOS>ATOM
      1 C1         -0.5563    3.4832   49.4689 C.3     1  ZINC000057429281   -0.1500
      2 C2         -1.4582    2.6914   48.5200 C.3     1  ZINC000057429281   -0.0400
      3 H3         -2.2216    3.3518   48.1087 H       1  ZINC000057429281    0.0900
      4 C4         -2.1298    1.5511   49.2875 C.3     1  ZINC000057429281   -0.1300
      5 C5         -3.2243    2.1093   50.1603 C.2     1  ZINC000057429281    0.5200
      6 O6         -3.0479    2.2246   51.3546 O.2     1  ZINC000057429281   -0.5300
      7 N7         -4.3990    2.4802   49.6137 N.am    1  ZINC000057429281   -0.7000
      8 C8         -5.4635    3.0212   50.4624 C.3     1  ZINC000057429281    0.1100
      9 C9         -6.3139    3.9703   49.6579 C.2     1  ZINC000057429281    0.5200
     10 N10        -7.4947    4.3973   50.1476 N.am    1  ZINC000057429281   -0.8500
     11 O11        -5.9357    4.3498   48.5699 O.2     1  ZINC000057429281   -0.5100
     12 C12        -6.3193    1.8920   50.9759 C.2     1  ZINC000057429281    0.5300
     13 N13        -6.8401    1.9520   52.2175 N.am    1  ZINC000057429281   -0.8400
     14 O14        -6.5394    0.9293   50.2719 O.2     1  ZINC000057429281   -0.5100
     15 C15        -0.6293    2.1218   47.3977 C.ar    1  ZINC000057429281   -0.0500
     16 C16         0.4087    1.2528   47.6773 C.ar    1  ZINC000057429281   -0.1200
     17 C17         1.1691    0.7302   46.6478 C.ar    1  ZINC000057429281   -0.0700
     18 C18         0.8911    1.0764   45.3387 C.ar    1  ZINC000057429281   -0.1900
     19 C19         1.7202    0.5070   44.2164 C.3     1  ZINC000057429281    0.5100
     20 F20         2.0237    1.5199   43.3005 F       1  ZINC000057429281   -0.1800
     21 F21         2.9062   -0.0232   44.7354 F       1  ZINC000057429281   -0.1800
     22 F22         1.0002   -0.5045   43.5716 F       1  ZINC000057429281   -0.1800
     23 C23        -0.1477    1.9443   45.0590 C.ar    1  ZINC000057429281   -0.0700
     24 C24        -0.9105    2.4639   46.0882 C.ar    1  ZINC000057429281   -0.1100
     25 H25        -0.0777    4.2957   48.9221 H       1  ZINC000057429281    0.0600
     26 H26        -1.1558    3.8953   50.2806 H       1  ZINC000057429281    0.0800
     27 H27         0.2073    2.8228   49.8801 H       1  ZINC000057429281    0.0500
     28 H28        -2.5562    0.8391   48.5809 H       1  ZINC000057429281    0.1000
     29 H29        -1.3905    1.0469   49.9097 H       1  ZINC000057429281    0.1000
     30 H30        -4.5397    2.3891   48.6582 H       1  ZINC000057429281    0.4200
     31 H31        -5.0215    3.5540   51.3043 H       1  ZINC000057429281    0.1300
     32 H32        -8.0421    5.0082   49.6298 H       1  ZINC000057429281    0.4000
     33 H33        -7.7972    4.0935   51.0177 H       1  ZINC000057429281    0.4100
     34 H34        -7.3909    1.2252   52.5481 H       1  ZINC000057429281    0.4000
     35 H35        -6.6641    2.7220   52.7806 H       1  ZINC000057429281    0.4100
     36 H36         0.6259    0.9822   48.7001 H       1  ZINC000057429281    0.1400
     37 H37         1.9804    0.0518   46.8664 H       1  ZINC000057429281    0.1400
     38 H38        -0.3652    2.2145   44.0362 H       1  ZINC000057429281    0.1400
     39 H39        -1.7222    3.1420   45.8696 H       1  ZINC000057429281    0.1400
@<TRIPOS>BOND
     1     1     2    1
     2     1    25    1
     3     1    26    1
     4     1    27    1
     5     2     3    1
     6     2     4    1
     7     2    15    1
     8     4     5    1
     9     4    28    1
    10     4    29    1
    11     5     6    2
    12     5     7   am
    13     7     8    1
    14     7    30    1
    15     8     9    1
    16     8    12    1
    17     8    31    1
    18     9    10   am
    19     9    11    2
    20    10    32    1
    21    10    33    1
    22    12    13   am
    23    12    14    2
    24    13    34    1
    25    13    35    1
    26    15    24   ar
    27    15    16   ar
    28    16    17   ar
    29    16    36    1
    30    17    18   ar
    31    17    37    1
    32    18    19    1
    33    18    23   ar
    34    19    20    1
    35    19    21    1
    36    19    22    1
    37    23    24   ar
    38    23    38    1
    39    24    39    1
@<TRIPOS>SUBSTRUCTURE
     1 ZINC000057429281        1 TEMP              0 ****  ****    0 ROOT


##########                                Name:    ZINC000879023512
##########                DOCK_Rotatable_Bonds:                   4
##########                         Heavy_Atoms:                  20
##########                    Molecular_Weight:             346.156
##########                DOCK_Rotatable_Bonds:                   4
##########                       Formal_Charge:        -5.96046e-08
##########                     HBond_Acceptors:                   7
##########                        HBond_Donors:                   1
##########                         Heavy_Atoms:                  20
##########                          Grid_Score:          -26.763783
##########                     Grid_vdw_energy:          -25.478245
##########                      Grid_es_energy:           -1.285537
##########           Internal_energy_repulsive:            2.715334

@<TRIPOS>MOLECULE
ZINC000879023512
 33 34 1 0 0
SMALL
USER_CHARGES


@<TRIPOS>ATOM
      1 O1         -1.9138    2.8774   50.3621 O.2     1  ZINC000879023512   -0.5600
      2 C2         -2.8373    2.1184   50.1396 C.2     1  ZINC000879023512    0.7200
      3 N3         -2.6965    1.1343   49.2295 N.am    1  ZINC000879023512   -0.6800
      4 C4         -1.4890    0.9895   48.5364 C.ar    1  ZINC000879023512    0.1800
      5 C5         -0.3579    0.5311   49.1984 C.ar    1  ZINC000879023512   -0.0900
      6 C6          0.8325    0.3891   48.5122 C.ar    1  ZINC000879023512   -0.0700
      7 C7          0.8984    0.7037   47.1667 C.ar    1  ZINC000879023512   -0.0700
      8 Br8         2.5297    0.5082   46.2305 Br      1  ZINC000879023512    0.0200
      9 C9         -0.2274    1.1608   46.5044 C.ar    1  ZINC000879023512    0.0000
     10 N10        -0.1532    1.4964   45.0647 N.pl3   1  ZINC000879023512    0.0200
     11 O11        -1.1437    1.8988   44.4813 O.2     1  ZINC000879023512   -0.1500
     12 O12         0.8985    1.3703   44.4634 O.2     1  ZINC000879023512   -0.1300
     13 C13        -1.4215    1.2987   47.1842 C.ar    1  ZINC000879023512   -0.0500
     14 N14        -3.9999    2.2579   50.8070 N.am    1  ZINC000879023512   -0.6300
     15 C15        -4.2903    3.2865   51.8166 C.3     1  ZINC000879023512    0.0900
     16 C16        -5.7272    3.0396   52.3222 C.3     1  ZINC000879023512   -0.1200
     17 C17        -5.9637    1.5447   51.9804 C.3     1  ZINC000879023512   -0.1400
     18 H18        -5.5388    0.8967   52.7470 H       1  ZINC000879023512    0.1000
     19 C19        -7.4535    1.2555   51.7861 C.3     1  ZINC000879023512    0.0700
     20 F20        -8.1311    1.4687   52.9914 F       1  ZINC000879023512   -0.2100
     21 C21        -5.1932    1.4084   50.6409 C.3     1  ZINC000879023512    0.1300
     22 H22        -3.4319    0.5264   49.0549 H       1  ZINC000879023512    0.4200
     23 H23        -0.4087    0.2861   50.2491 H       1  ZINC000879023512    0.1600
     24 H24         1.7126    0.0326   49.0266 H       1  ZINC000879023512    0.1600
     25 H25        -2.2999    1.6551   46.6668 H       1  ZINC000879023512    0.1800
     26 H26        -3.5863    3.2024   52.6446 H       1  ZINC000879023512    0.0700
     27 H27        -4.2205    4.2771   51.3672 H       1  ZINC000879023512    0.0700
     28 H28        -5.7911    3.2040   53.3979 H       1  ZINC000879023512    0.0900
     29 H29        -6.4372    3.6735   51.7912 H       1  ZINC000879023512    0.0900
     30 H30        -7.8556    1.9196   51.0210 H       1  ZINC000879023512    0.0800
     31 H31        -7.5849    0.2196   51.4737 H       1  ZINC000879023512    0.0800
     32 H32        -5.8063    1.7640   49.8128 H       1  ZINC000879023512    0.0800
     33 H33        -4.8972    0.3722   50.4772 H       1  ZINC000879023512    0.0900
@<TRIPOS>BOND
     1     1     2    2
     2     2     3   am
     3     2    14   am
     4     3     4    1
     5     3    22    1
     6     4    13   ar
     7     4     5   ar
     8     5     6   ar
     9     5    23    1
    10     6     7   ar
    11     6    24    1
    12     7     8    1
    13     7     9   ar
    14     9    10    1
    15     9    13   ar
    16    10    11    2
    17    10    12    2
    18    13    25    1
    19    14    21    1
    20    14    15    1
    21    15    16    1
    22    15    26    1
    23    15    27    1
    24    16    17    1
    25    16    28    1
    26    16    29    1
    27    17    18    1
    28    17    19    1
    29    17    21    1
    30    19    20    1
    31    19    30    1
    32    19    31    1
    33    21    32    1
    34    21    33    1
@<TRIPOS>SUBSTRUCTURE
     1 ZINC000879023512        1 TEMP              0 ****  ****    0 ROOT


##########                                Name:    ZINC000225856071
##########                DOCK_Rotatable_Bonds:                   6
##########                         Heavy_Atoms:                  29
##########                    Molecular_Weight:             409.549
##########                DOCK_Rotatable_Bonds:                   6
##########                       Formal_Charge:         -0.00999989
##########                     HBond_Acceptors:                   5
##########                        HBond_Donors:                   1
##########                         Heavy_Atoms:                  29
##########                          Grid_Score:          -26.751541
##########                     Grid_vdw_energy:          -26.784716
##########                      Grid_es_energy:            0.033175
##########           Internal_energy_repulsive:           30.137177

@<TRIPOS>MOLECULE
ZINC000225856071
 56 58 1 0 0
SMALL
USER_CHARGES


@<TRIPOS>ATOM
      1 C1        -10.6300   -2.5700   58.3964 C.3     1  ZINC000225856071    0.0200
      2 O2        -11.3922   -1.3757   58.2100 O.3     1  ZINC000225856071   -0.3100
      3 C3        -10.7893   -0.3569   57.5425 C.ar    1  ZINC000225856071    0.1900
      4 C4         -9.6404    0.2262   58.0560 C.ar    1  ZINC000225856071   -0.2300
      5 C5         -9.0291    1.2616   57.3752 C.ar    1  ZINC000225856071    0.0700
      6 C6         -7.7807    1.8956   57.9326 C.3     1  ZINC000225856071   -0.1800
      7 C7         -9.5613    1.7160   56.1831 C.ar    1  ZINC000225856071   -0.7100
      8 S8         -8.7791    3.0361   55.3171 S.o2    1  ZINC000225856071    2.7000
      9 O9         -9.1799    4.2350   55.9661 O.2     1  ZINC000225856071   -0.9600
     10 O10        -7.4190    2.6583   55.1533 O.2     1  ZINC000225856071   -0.9500
     11 N11        -9.4372    3.0839   53.7982 N.am    1  ZINC000225856071   -1.1100
     12 C12        -9.3271    1.9200   52.9153 C.3     1  ZINC000225856071    0.2400
     13 H13        -9.2136    1.0177   53.5161 H       1  ZINC000225856071    0.1100
     14 C14        -8.1265    2.0811   52.0190 C.ar    1  ZINC000225856071   -0.1000
     15 C15        -7.9421    3.2564   51.3151 C.ar    1  ZINC000225856071   -0.1000
     16 C16        -6.8407    3.4043   50.4930 C.ar    1  ZINC000225856071   -0.1200
     17 C17        -5.9233    2.3769   50.3752 C.ar    1  ZINC000225856071   -0.1100
     18 C18        -6.1071    1.2019   51.0799 C.ar    1  ZINC000225856071   -0.1100
     19 C19        -7.2062    1.0557   51.9053 C.ar    1  ZINC000225856071   -0.1000
     20 C20       -10.5717    1.8092   52.0727 C.ar    1  ZINC000225856071   -0.0900
     21 C21       -11.2787    2.9467   51.7315 C.ar    1  ZINC000225856071   -0.1000
     22 C22       -12.4205    2.8451   50.9584 C.ar    1  ZINC000225856071   -0.1200
     23 C23       -12.8545    1.6060   50.5266 C.ar    1  ZINC000225856071   -0.0800
     24 C24       -14.0994    1.4952   49.6844 C.3     1  ZINC000225856071   -0.1200
     25 C25       -12.1466    0.4682   50.8668 C.ar    1  ZINC000225856071   -0.1200
     26 C26       -11.0031    0.5702   51.6363 C.ar    1  ZINC000225856071   -0.0600
     27 C27       -10.2313   -0.6699   52.0072 C.3     1  ZINC000225856071   -0.1300
     28 C28       -10.7065    1.1360   55.6688 C.ar    1  ZINC000225856071    0.0200
     29 C29       -11.3189    0.0978   56.3434 C.ar    1  ZINC000225856071   -0.1400
     30 C30       -12.5666   -0.5341   55.7821 C.3     1  ZINC000225856071   -0.1100
     31 H31        -9.7284   -2.3407   58.9644 H       1  ZINC000225856071    0.0600
     32 H32       -11.2271   -3.3007   58.9420 H       1  ZINC000225856071    0.1000
     33 H33       -10.3531   -2.9796   57.4249 H       1  ZINC000225856071    0.0600
     34 H34        -9.2241   -0.1284   58.9873 H       1  ZINC000225856071    0.1400
     35 H35        -6.9048    1.3757   57.5445 H       1  ZINC000225856071    0.0900
     36 H36        -7.7421    2.9438   57.6361 H       1  ZINC000225856071    0.1000
     37 H37        -7.7922    1.8260   59.0203 H       1  ZINC000225856071    0.0800
     38 H38        -9.8956    3.8824   53.4931 H       1  ZINC000225856071    0.4200
     39 H39        -8.6588    4.0591   51.4072 H       1  ZINC000225856071    0.1200
     40 H40        -6.6971    4.3223   49.9424 H       1  ZINC000225856071    0.1200
     41 H41        -5.0632    2.4921   49.7323 H       1  ZINC000225856071    0.1200
     42 H42        -5.3906    0.3992   50.9875 H       1  ZINC000225856071    0.1200
     43 H43        -7.3499    0.1378   52.4558 H       1  ZINC000225856071    0.1200
     44 H44       -10.9394    3.9150   52.0689 H       1  ZINC000225856071    0.1200
     45 H45       -12.9733    3.7339   50.6924 H       1  ZINC000225856071    0.1200
     46 H46       -13.8322    1.5664   48.6300 H       1  ZINC000225856071    0.0700
     47 H47       -14.5814    0.5359   49.8730 H       1  ZINC000225856071    0.0700
     48 H48       -14.7847    2.3030   49.9409 H       1  ZINC000225856071    0.0700
     49 H49       -12.4856   -0.4999   50.5290 H       1  ZINC000225856071    0.1200
     50 H50        -9.4799   -0.8721   51.2438 H       1  ZINC000225856071    0.0800
     51 H51        -9.7408   -0.5186   52.9688 H       1  ZINC000225856071    0.0700
     52 H52       -10.9149   -1.5159   52.0772 H       1  ZINC000225856071    0.0700
     53 H53       -11.1202    1.4925   54.7371 H       1  ZINC000225856071    0.1500
     54 H54       -12.2921   -1.3625   55.1289 H       1  ZINC000225856071    0.0700
     55 H55       -13.1850   -0.9055   56.5993 H       1  ZINC000225856071    0.0700
     56 H56       -13.1252    0.2083   55.2122 H       1  ZINC000225856071    0.0700
@<TRIPOS>BOND
     1     1     2    1
     2     1    31    1
     3     1    32    1
     4     1    33    1
     5     2     3    1
     6     3    29   ar
     7     3     4   ar
     8     4     5   ar
     9     4    34    1
    10     5     6    1
    11     5     7   ar
    12     6    35    1
    13     6    36    1
    14     6    37    1
    15     7     8    1
    16     7    28   ar
    17     8     9    2
    18     8    10    2
    19     8    11   am
    20    11    12    1
    21    11    38    1
    22    12    13    1
    23    12    14    1
    24    12    20    1
    25    14    19   ar
    26    14    15   ar
    27    15    16   ar
    28    15    39    1
    29    16    17   ar
    30    16    40    1
    31    17    18   ar
    32    17    41    1
    33    18    19   ar
    34    18    42    1
    35    19    43    1
    36    20    26   ar
    37    20    21   ar
    38    21    22   ar
    39    21    44    1
    40    22    23   ar
    41    22    45    1
    42    23    24    1
    43    23    25   ar
    44    24    46    1
    45    24    47    1
    46    24    48    1
    47    25    26   ar
    48    25    49    1
    49    26    27    1
    50    27    50    1
    51    27    51    1
    52    27    52    1
    53    28    29   ar
    54    28    53    1
    55    29    30    1
    56    30    54    1
    57    30    55    1
    58    30    56    1
@<TRIPOS>SUBSTRUCTURE
     1 ZINC000225856071        1 TEMP              0 ****  ****    0 ROOT


##########                                Name:    ZINC000077537368
##########                DOCK_Rotatable_Bonds:                   5
##########                         Heavy_Atoms:                  27
##########                    Molecular_Weight:             365.478
##########                DOCK_Rotatable_Bonds:                   5
##########                       Formal_Charge:          -0.0400007
##########                     HBond_Acceptors:                   6
##########                        HBond_Donors:                   0
##########                         Heavy_Atoms:                  27
##########                          Grid_Score:          -26.747274
##########                     Grid_vdw_energy:          -26.202345
##########                      Grid_es_energy:           -0.544930
##########           Internal_energy_repulsive:           14.618431

@<TRIPOS>MOLECULE
ZINC000077537368
 54 56 1 0 0
SMALL
USER_CHARGES


@<TRIPOS>ATOM
      1 C1         -7.6060    5.9631   51.9156 C.3     1  ZINC000077537368    0.0800
      2 N2         -7.4266    4.9885   52.9945 N.pl3   1  ZINC000077537368   -0.2600
      3 N3         -7.5873    5.2312   54.2456 N.2     1  ZINC000077537368   -0.2700
      4 C4         -7.3546    4.1617   54.9628 C.2     1  ZINC000077537368    0.0400
      5 C5         -7.4433    4.0635   56.4640 C.3     1  ZINC000077537368    0.0200
      6 C6         -6.4556    3.0079   56.9652 C.3     1  ZINC000077537368   -0.1400
      7 C7         -7.0997    5.4189   57.0849 C.3     1  ZINC000077537368   -0.1400
      8 C8         -8.8645    3.6639   56.8660 C.3     1  ZINC000077537368   -0.1400
      9 C9         -7.0103    3.1270   54.0900 C.2     1  ZINC000077537368   -0.2000
     10 C10        -7.0686    3.6814   52.8231 C.2     1  ZINC000077537368   -0.0400
     11 C11        -6.7917    3.0014   51.5478 C.2     1  ZINC000077537368    0.5900
     12 O12        -7.6760    2.8726   50.7227 O.2     1  ZINC000077537368   -0.5400
     13 N13        -5.5581    2.5213   51.2940 N.am    1  ZINC000077537368   -0.6000
     14 C14        -5.2583    1.8438   50.0235 C.3     1  ZINC000077537368    0.0800
     15 C15        -4.0072    2.4848   49.4135 C.3     1  ZINC000077537368    0.0400
     16 N16        -2.9193    2.4640   50.4005 N.3     1  ZINC000077537368   -0.5300
     17 C17        -1.6555    2.9116   49.8004 C.3     1  ZINC000077537368    0.0900
     18 C18        -1.3430    2.0622   48.5954 C.ar    1  ZINC000077537368   -0.0500
     19 C19        -1.2851    0.6854   48.7197 C.ar    1  ZINC000077537368   -0.1200
     20 C20        -0.9992   -0.0981   47.6208 C.ar    1  ZINC000077537368   -0.0700
     21 C21        -0.7683    0.5014   46.3811 C.ar    1  ZINC000077537368   -0.0300
     22 C22        -0.4715   -0.3057   45.2361 C.1     1  ZINC000077537368    0.2500
     23 N23        -0.2359   -0.9460   44.3277 N.1     1  ZINC000077537368   -0.4100
     24 C24        -0.8288    1.8914   46.2627 C.ar    1  ZINC000077537368   -0.0700
     25 C25        -1.1210    2.6625   47.3686 C.ar    1  ZINC000077537368   -0.1000
     26 C26        -3.2559    3.2699   51.5816 C.3     1  ZINC000077537368    0.0400
     27 C27        -4.4746    2.6664   52.2780 C.3     1  ZINC000077537368    0.1200
     28 H28        -8.6127    5.8722   51.5075 H       1  ZINC000077537368    0.0800
     29 H29        -7.4626    6.9699   52.3079 H       1  ZINC000077537368    0.1000
     30 H30        -6.8764    5.7725   51.1287 H       1  ZINC000077537368    0.1100
     31 H31        -5.4432    3.2926   56.6788 H       1  ZINC000077537368    0.0600
     32 H32        -6.5197    2.9369   58.0510 H       1  ZINC000077537368    0.0600
     33 H33        -6.7004    2.0423   56.5229 H       1  ZINC000077537368    0.0600
     34 H34        -7.8033    6.1710   56.7278 H       1  ZINC000077537368    0.0600
     35 H35        -7.1638    5.3480   58.1707 H       1  ZINC000077537368    0.0600
     36 H36        -6.0873    5.7037   56.7984 H       1  ZINC000077537368    0.0600
     37 H37        -9.1092    2.6982   56.4237 H       1  ZINC000077537368    0.0600
     38 H38        -8.9285    3.5929   57.9518 H       1  ZINC000077537368    0.0600
     39 H39        -9.5681    4.4159   56.5089 H       1  ZINC000077537368    0.0600
     40 H40        -6.7562    2.1097   54.3484 H       1  ZINC000077537368    0.1700
     41 H41        -5.0746    0.7852   50.2075 H       1  ZINC000077537368    0.0800
     42 H42        -6.0992    1.9591   49.3397 H       1  ZINC000077537368    0.1200
     43 H43        -3.7061    1.9244   48.5285 H       1  ZINC000077537368    0.0900
     44 H44        -4.2258    3.5158   49.1349 H       1  ZINC000077537368    0.0400
     45 H45        -1.7469    3.9542   49.4960 H       1  ZINC000077537368    0.0900
     46 H46        -0.8522    2.8154   50.5308 H       1  ZINC000077537368    0.0500
     47 H47        -1.4638    0.2230   49.6792 H       1  ZINC000077537368    0.1300
     48 H48        -0.9536   -1.1726   47.7193 H       1  ZINC000077537368    0.1300
     49 H49        -0.6514    2.3614   45.3068 H       1  ZINC000077537368    0.1300
     50 H50        -1.1684    3.7376   47.2785 H       1  ZINC000077537368    0.1400
     51 H51        -2.4100    3.2788   52.2689 H       1  ZINC000077537368    0.1000
     52 H52        -3.4849    4.2898   51.2728 H       1  ZINC000077537368    0.0400
     53 H53        -4.7970    3.3231   53.0860 H       1  ZINC000077537368    0.1000
     54 H54        -4.2188    1.6859   52.6793 H       1  ZINC000077537368    0.0800
@<TRIPOS>BOND
     1     1     2    1
     2     1    28    1
     3     1    29    1
     4     1    30    1
     5     2    10    1
     6     2     3    1
     7     3     4    2
     8     4     5    1
     9     4     9    1
    10     5     6    1
    11     5     7    1
    12     5     8    1
    13     6    31    1
    14     6    32    1
    15     6    33    1
    16     7    34    1
    17     7    35    1
    18     7    36    1
    19     8    37    1
    20     8    38    1
    21     8    39    1
    22     9    10    2
    23     9    40    1
    24    10    11    1
    25    11    12    2
    26    11    13   am
    27    13    27    1
    28    13    14    1
    29    14    15    1
    30    14    41    1
    31    14    42    1
    32    15    16    1
    33    15    43    1
    34    15    44    1
    35    16    17    1
    36    16    26    1
    37    17    18    1
    38    17    45    1
    39    17    46    1
    40    18    25   ar
    41    18    19   ar
    42    19    20   ar
    43    19    47    1
    44    20    21   ar
    45    20    48    1
    46    21    22    1
    47    21    24   ar
    48    22    23    3
    49    24    25   ar
    50    24    49    1
    51    25    50    1
    52    26    27    1
    53    26    51    1
    54    26    52    1
    55    27    53    1
    56    27    54    1
@<TRIPOS>SUBSTRUCTURE
     1 ZINC000077537368        1 TEMP              0 ****  ****    0 ROOT


##########                                Name:    ZINC001013196242
##########                DOCK_Rotatable_Bonds:                   5
##########                         Heavy_Atoms:                  24
##########                    Molecular_Weight:              349.86
##########                DOCK_Rotatable_Bonds:                   5
##########                       Formal_Charge:        -3.05474e-07
##########                     HBond_Acceptors:                   6
##########                        HBond_Donors:                   1
##########                         Heavy_Atoms:                  24
##########                          Grid_Score:          -26.730597
##########                     Grid_vdw_energy:          -25.120771
##########                      Grid_es_energy:           -1.609825
##########           Internal_energy_repulsive:           15.999084

@<TRIPOS>MOLECULE
ZINC001013196242
 48 51 1 0 0
SMALL
USER_CHARGES


@<TRIPOS>ATOM
      1 C1         -6.0900    4.1511   49.0721 C.3     1  ZINC001013196242   -0.1600
      2 C2         -5.8101    2.9723   50.0065 C.3     1  ZINC001013196242    0.1400
      3 H3         -6.0632    2.0365   49.5084 H       1  ZINC001013196242    0.0800
      4 C4         -6.6391    3.1194   51.2999 C.3     1  ZINC001013196242   -0.1400
      5 C5         -5.6619    2.6214   52.3974 C.3     1  ZINC001013196242    0.1300
      6 H6         -5.6726    1.5336   52.4656 H       1  ZINC001013196242    0.1100
      7 N7         -5.9739    3.2291   53.6934 N.am    1  ZINC001013196242   -0.7200
      8 C8         -7.0790    2.8515   54.3662 C.2     1  ZINC001013196242    0.5400
      9 O9         -7.8142    2.0073   53.8995 O.2     1  ZINC001013196242   -0.5200
     10 C10        -7.4008    3.4779   55.6984 C.3     1  ZINC001013196242   -0.1400
     11 C11        -6.3426    3.2010   56.7808 C.3     1  ZINC001013196242   -0.0800
     12 C12        -5.6404    4.4763   56.3022 C.3     1  ZINC001013196242   -0.1600
     13 C13        -4.5450    5.2768   56.9977 C.3     1  ZINC001013196242   -0.1700
     14 C14        -4.2734    4.6185   55.6423 C.3     1  ZINC001013196242   -0.1400
     15 C15        -7.0023    4.9613   55.7937 C.3     1  ZINC001013196242   -0.0800
     16 C16        -4.3021    3.1304   51.8574 C.3     1  ZINC001013196242    0.0800
     17 N17        -4.3913    2.9658   50.3919 N.am    1  ZINC001013196242   -0.6000
     18 C18        -3.3462    2.8339   49.5512 C.2     1  ZINC001013196242    0.6100
     19 O19        -3.5387    2.7057   48.3564 O.2     1  ZINC001013196242   -0.5400
     20 C20        -1.9768    2.8449   50.0763 C.2     1  ZINC001013196242   -0.0400
     21 C21        -1.4199    3.8174   50.8798 C.2     1  ZINC001013196242   -0.1400
     22 C22        -0.1021    3.4286   51.1428 C.2     1  ZINC001013196242   -0.1200
     23 Cl23        1.0469    4.2996   52.1096 Cl      1  ZINC001013196242   -0.0400
     24 C24         0.1180    2.2511   50.5092 C.2     1  ZINC001013196242    0.0400
     25 N25        -1.0156    1.8833   49.8616 N.pl3   1  ZINC001013196242   -0.4000
     26 C26        -1.1860    0.6689   49.0602 C.3     1  ZINC001013196242    0.0700
     27 H27        -5.4973    4.0435   48.1637 H       1  ZINC001013196242    0.0700
     28 H28        -7.1492    4.1675   48.8151 H       1  ZINC001013196242    0.0700
     29 H29        -5.8230    5.0823   49.5719 H       1  ZINC001013196242    0.0600
     30 H30        -6.9092    4.1619   51.4683 H       1  ZINC001013196242    0.0900
     31 H31        -7.5286    2.4908   51.2614 H       1  ZINC001013196242    0.0900
     32 H32        -5.3852    3.9034   54.0672 H       1  ZINC001013196242    0.4000
     33 H33        -8.4220    3.2789   56.0238 H       1  ZINC001013196242    0.1000
     34 H34        -6.7291    3.2701   57.7978 H       1  ZINC001013196242    0.1000
     35 H35        -5.7662    2.2926   56.6063 H       1  ZINC001013196242    0.0700
     36 H36        -4.6501    6.3615   57.0186 H       1  ZINC001013196242    0.1000
     37 H37        -4.0772    4.8324   57.8762 H       1  ZINC001013196242    0.0900
     38 H38        -3.6269    3.7410   55.6293 H       1  ZINC001013196242    0.0900
     39 H39        -4.1999    5.2702   54.7716 H       1  ZINC001013196242    0.1000
     40 H40        -6.9546    5.4641   54.8278 H       1  ZINC001013196242    0.0800
     41 H41        -7.5723    5.5203   56.5358 H       1  ZINC001013196242    0.0900
     42 H42        -4.1608    4.1801   52.1146 H       1  ZINC001013196242    0.0800
     43 H43        -3.4860    2.5279   52.2565 H       1  ZINC001013196242    0.1000
     44 H44        -1.9089    4.7112   51.2381 H       1  ZINC001013196242    0.1600
     45 H45         1.0435    1.6946   50.5211 H       1  ZINC001013196242    0.1800
     46 H46        -1.6352   -0.1116   49.6744 H       1  ZINC001013196242    0.0800
     47 H47        -1.8355    0.8820   48.2113 H       1  ZINC001013196242    0.1000
     48 H48        -0.2142    0.3326   48.6989 H       1  ZINC001013196242    0.0900
@<TRIPOS>BOND
     1     1     2    1
     2     1    27    1
     3     1    28    1
     4     1    29    1
     5     2     3    1
     6     2    17    1
     7     2     4    1
     8     4     5    1
     9     4    30    1
    10     4    31    1
    11     5     6    1
    12     5     7    1
    13     5    16    1
    14     7     8   am
    15     7    32    1
    16     8     9    2
    17     8    10    1
    18    10    15    1
    19    10    11    1
    20    10    33    1
    21    11    12    1
    22    11    34    1
    23    11    35    1
    24    12    14    1
    25    12    13    1
    26    12    15    1
    27    13    14    1
    28    13    36    1
    29    13    37    1
    30    14    38    1
    31    14    39    1
    32    15    40    1
    33    15    41    1
    34    16    17    1
    35    16    42    1
    36    16    43    1
    37    17    18   am
    38    18    19    2
    39    18    20    1
    40    20    25    1
    41    20    21    2
    42    21    22    1
    43    21    44    1
    44    22    23    1
    45    22    24    2
    46    24    25    1
    47    24    45    1
    48    25    26    1
    49    26    46    1
    50    26    47    1
    51    26    48    1
@<TRIPOS>SUBSTRUCTURE
     1 ZINC001013196242        1 TEMP              0 ****  ****    0 ROOT


##########                                Name:    ZINC000550782577
##########                DOCK_Rotatable_Bonds:                   5
##########                         Heavy_Atoms:                  25
##########                    Molecular_Weight:              338.45
##########                DOCK_Rotatable_Bonds:                   5
##########                       Formal_Charge:         -0.00999954
##########                     HBond_Acceptors:                   4
##########                        HBond_Donors:                   0
##########                         Heavy_Atoms:                  25
##########                          Grid_Score:          -26.728563
##########                     Grid_vdw_energy:          -26.023123
##########                      Grid_es_energy:           -0.705441
##########           Internal_energy_repulsive:           31.105301

@<TRIPOS>MOLECULE
ZINC000550782577
 51 53 1 0 0
SMALL
USER_CHARGES


@<TRIPOS>ATOM
      1 C1         -1.4313    3.7584   50.7652 C.3     1  ZINC000550782577    0.0700
      2 N2         -1.6466    2.7293   49.7450 N.am    1  ZINC000550782577   -0.5900
      3 C3         -2.8706    2.1902   49.5794 C.2     1  ZINC000550782577    0.5800
      4 O4         -3.0492    1.3363   48.7330 O.2     1  ZINC000550782577   -0.5400
      5 C5         -3.9969    2.6377   50.4277 C.ar    1  ZINC000550782577    0.0300
      6 C6         -5.1439    3.1605   49.8319 C.ar    1  ZINC000550782577   -0.0600
      7 C7         -6.1908    3.5758   50.6356 C.ar    1  ZINC000550782577   -0.1200
      8 C8         -6.0559    3.4543   52.0156 C.ar    1  ZINC000550782577    0.1100
      9 O9         -7.0585    3.8491   52.8408 O.3     1  ZINC000550782577   -0.3000
     10 C10        -8.1192    2.9180   53.0646 C.3     1  ZINC000550782577    0.1000
     11 C11        -8.2308    2.6225   54.5616 C.3     1  ZINC000550782577   -0.2000
     12 C12        -9.4357    3.5145   52.5629 C.3     1  ZINC000550782577   -0.1400
     13 C13        -7.8264    1.6202   52.3090 C.3     1  ZINC000550782577   -0.2000
     14 C14        -4.8802    2.9226   52.5398 C.ar    1  ZINC000550782577   -0.0100
     15 N15        -3.9070    2.5325   51.7487 N.ar    1  ZINC000550782577   -0.4100
     16 C16        -0.5311    2.2861   48.9049 C.3     1  ZINC000550782577    0.1400
     17 H17         0.3850    2.7872   49.2171 H       1  ZINC000550782577    0.1100
     18 C18        -0.3592    0.7681   49.0339 C.3     1  ZINC000550782577   -0.1300
     19 C19         0.9451    0.3706   48.3456 C.3     1  ZINC000550782577   -0.0800
     20 C20         1.0019    0.9376   46.9512 C.ar    1  ZINC000550782577   -0.0800
     21 C21         1.9111    0.3790   46.0626 C.ar    1  ZINC000550782577   -0.1200
     22 C22         2.0153    0.8576   44.7728 C.ar    1  ZINC000550782577   -0.1200
     23 C23         1.2091    1.9021   44.3610 C.ar    1  ZINC000550782577   -0.1200
     24 C24         0.3034    2.4569   45.2417 C.ar    1  ZINC000550782577   -0.1200
     25 C25         0.1944    1.9742   46.5392 C.ar    1  ZINC000550782577   -0.0700
     26 C26        -0.8255    2.6163   47.4430 C.3     1  ZINC000550782577   -0.0900
     27 H27        -1.2631    3.2827   51.7314 H       1  ZINC000550782577    0.0600
     28 H28        -0.5607    4.3577   50.4987 H       1  ZINC000550782577    0.0600
     29 H29        -2.3100    4.4006   50.8245 H       1  ZINC000550782577    0.1100
     30 H30        -5.2143    3.2404   48.7572 H       1  ZINC000550782577    0.1600
     31 H31        -7.0916    3.9849   50.2023 H       1  ZINC000550782577    0.1500
     32 H32        -8.8258    3.3993   55.0419 H       1  ZINC000550782577    0.0700
     33 H33        -8.7117    1.6550   54.7061 H       1  ZINC000550782577    0.0800
     34 H34        -7.2345    2.6026   55.0034 H       1  ZINC000550782577    0.0800
     35 H35        -9.3561    3.7250   51.4964 H       1  ZINC000550782577    0.0700
     36 H36       -10.2448    2.8042   52.7337 H       1  ZINC000550782577    0.0800
     37 H37        -9.6442    4.4391   53.1012 H       1  ZINC000550782577    0.0700
     38 H38        -6.8909    1.1929   52.6697 H       1  ZINC000550782577    0.0800
     39 H39        -8.6378    0.9117   52.4760 H       1  ZINC000550782577    0.0800
     40 H40        -7.7422    1.8315   51.2430 H       1  ZINC000550782577    0.0700
     41 H41        -4.7692    2.8257   53.6097 H       1  ZINC000550782577    0.1900
     42 H42        -0.3172    0.4916   50.0875 H       1  ZINC000550782577    0.0700
     43 H43        -1.1966    0.2616   48.5541 H       1  ZINC000550782577    0.0700
     44 H44         1.7871    0.7519   48.9233 H       1  ZINC000550782577    0.0800
     45 H45         1.0078   -0.7164   48.2945 H       1  ZINC000550782577    0.0800
     46 H46         2.5420   -0.4365   46.3839 H       1  ZINC000550782577    0.1200
     47 H47         2.7246    0.4179   44.0872 H       1  ZINC000550782577    0.1200
     48 H48         1.2880    2.2830   43.3535 H       1  ZINC000550782577    0.1200
     49 H49        -0.3260    3.2732   44.9193 H       1  ZINC000550782577    0.1200
     50 H50        -1.8180    2.2473   47.1844 H       1  ZINC000550782577    0.0800
     51 H51        -0.7976    3.6973   47.3056 H       1  ZINC000550782577    0.0800
@<TRIPOS>BOND
     1     1     2    1
     2     1    27    1
     3     1    28    1
     4     1    29    1
     5     2     3   am
     6     2    16    1
     7     3     4    2
     8     3     5    1
     9     5    15   ar
    10     5     6   ar
    11     6     7   ar
    12     6    30    1
    13     7     8   ar
    14     7    31    1
    15     8     9    1
    16     8    14   ar
    17     9    10    1
    18    10    11    1
    19    10    12    1
    20    10    13    1
    21    11    32    1
    22    11    33    1
    23    11    34    1
    24    12    35    1
    25    12    36    1
    26    12    37    1
    27    13    38    1
    28    13    39    1
    29    13    40    1
    30    14    15   ar
    31    14    41    1
    32    16    17    1
    33    16    26    1
    34    16    18    1
    35    18    19    1
    36    18    42    1
    37    18    43    1
    38    19    20    1
    39    19    44    1
    40    19    45    1
    41    20    25   ar
    42    20    21   ar
    43    21    22   ar
    44    21    46    1
    45    22    23   ar
    46    22    47    1
    47    23    24   ar
    48    23    48    1
    49    24    25   ar
    50    24    49    1
    51    25    26    1
    52    26    50    1
    53    26    51    1
@<TRIPOS>SUBSTRUCTURE
     1 ZINC000550782577        1 TEMP              0 ****  ****    0 ROOT


##########                                Name:    ZINC000477589488
##########                DOCK_Rotatable_Bonds:                   6
##########                         Heavy_Atoms:                  32
##########                    Molecular_Weight:             423.517
##########                DOCK_Rotatable_Bonds:                   6
##########                       Formal_Charge:        -8.19564e-07
##########                     HBond_Acceptors:                   6
##########                        HBond_Donors:                   1
##########                         Heavy_Atoms:                  32
##########                          Grid_Score:          -26.680246
##########                     Grid_vdw_energy:          -26.728338
##########                      Grid_es_energy:            0.048092
##########           Internal_energy_repulsive:           21.445793

@<TRIPOS>MOLECULE
ZINC000477589488
 57 61 1 0 0
SMALL
USER_CHARGES


@<TRIPOS>ATOM
      1 O1         -3.4706    1.3775   51.0381 O.2     1  ZINC000477589488   -0.5800
      2 C2         -3.8436    2.1970   50.2211 C.2     1  ZINC000477589488    0.7100
      3 N3         -2.9564    2.7582   49.3759 N.am    1  ZINC000477589488   -0.7400
      4 C4         -1.5414    2.3852   49.4457 C.3     1  ZINC000477589488    0.2500
      5 H5         -1.4545    1.3011   49.5184 H       1  ZINC000477589488    0.1100
      6 C6         -0.9132    3.0219   50.6586 C.ar    1  ZINC000477589488   -0.0900
      7 C7          0.2574    2.5056   51.1820 C.ar    1  ZINC000477589488   -0.1000
      8 C8          0.8337    3.0896   52.2945 C.ar    1  ZINC000477589488   -0.1200
      9 C9          0.2396    4.1903   52.8833 C.ar    1  ZINC000477589488   -0.1200
     10 C10        -0.9304    4.7071   52.3593 C.ar    1  ZINC000477589488   -0.1200
     11 C11        -1.5045    4.1257   51.2441 C.ar    1  ZINC000477589488   -0.1000
     12 C12        -0.8339    2.8635   48.2040 C.ar    1  ZINC000477589488   -0.0700
     13 C13        -0.6591    1.9963   47.1124 C.ar    1  ZINC000477589488   -0.0400
     14 C14        -1.1339    0.6741   47.1473 C.ar    1  ZINC000477589488   -0.1100
     15 C15        -0.9467   -0.1373   46.0710 C.ar    1  ZINC000477589488   -0.1100
     16 C16        -0.2893    0.3228   44.9312 C.ar    1  ZINC000477589488   -0.1100
     17 C17         0.1844    1.5966   44.8616 C.ar    1  ZINC000477589488   -0.1100
     18 C18         0.0091    2.4644   45.9532 C.ar    1  ZINC000477589488   -0.0500
     19 C19         0.4838    3.7863   45.9182 C.ar    1  ZINC000477589488   -0.1000
     20 C20         0.2953    4.5982   46.9944 C.ar    1  ZINC000477589488   -0.1100
     21 C21        -0.3658    4.1398   48.1320 C.ar    1  ZINC000477589488   -0.1100
     22 N22        -5.1454    2.5401   50.1569 N.am    1  ZINC000477589488   -0.6300
     23 C23        -6.1292    1.9444   51.0736 C.3     1  ZINC000477589488    0.1300
     24 C24        -6.9317    3.0743   51.7277 C.3     1  ZINC000477589488    0.0500
     25 N25        -7.4991    3.9362   50.6823 N.3     1  ZINC000477589488   -0.4700
     26 C26        -8.3663    4.8763   51.2279 C.ar    1  ZINC000477589488    0.2500
     27 C27        -9.7209    4.5790   51.3727 C.ar    1  ZINC000477589488   -0.1300
     28 C28       -10.5432    5.5502   51.9220 C.ar    1  ZINC000477589488   -0.0900
     29 C29        -9.9687    6.7575   52.2936 C.ar    1  ZINC000477589488    0.0200
     30 N30        -8.6767    6.9539   52.1205 N.ar    1  ZINC000477589488   -0.2200
     31 N31        -7.9083    6.0572   51.6177 N.ar    1  ZINC000477589488   -0.2800
     32 C32        -6.4423    4.5881   49.8972 C.3     1  ZINC000477589488    0.0400
     33 C33        -5.6188    3.5247   49.1722 C.3     1  ZINC000477589488    0.1200
     34 H34        -3.2546    3.4089   48.7214 H       1  ZINC000477589488    0.3900
     35 H35         0.7215    1.6457   50.7221 H       1  ZINC000477589488    0.1100
     36 H36         1.7479    2.6858   52.7039 H       1  ZINC000477589488    0.1200
     37 H37         0.6895    4.6461   53.7529 H       1  ZINC000477589488    0.1200
     38 H38        -1.3948    5.5668   52.8195 H       1  ZINC000477589488    0.1200
     39 H39        -2.4186    4.5295   50.8347 H       1  ZINC000477589488    0.1200
     40 H40        -1.6446    0.3036   48.0239 H       1  ZINC000477589488    0.1300
     41 H41        -1.3127   -1.1529   46.1004 H       1  ZINC000477589488    0.1300
     42 H42        -0.1536   -0.3419   44.0908 H       1  ZINC000477589488    0.1300
     43 H43         0.6925    1.9389   43.9721 H       1  ZINC000477589488    0.1300
     44 H44         0.9958    4.1561   45.0422 H       1  ZINC000477589488    0.1300
     45 H45         0.6615    5.6138   46.9650 H       1  ZINC000477589488    0.1300
     46 H46        -0.5025    4.8046   48.9721 H       1  ZINC000477589488    0.1200
     47 H47        -6.8019    1.2929   50.5157 H       1  ZINC000477589488    0.0800
     48 H48        -5.6124    1.3698   51.8423 H       1  ZINC000477589488    0.1100
     49 H49        -7.7377    2.6490   52.3257 H       1  ZINC000477589488    0.1000
     50 H50        -6.2750    3.6632   52.3679 H       1  ZINC000477589488    0.0600
     51 H51       -10.1169    3.6221   51.0662 H       1  ZINC000477589488    0.1500
     52 H52       -11.6000    5.3727   52.0564 H       1  ZINC000477589488    0.1500
     53 H53       -10.5803    7.5364   52.7244 H       1  ZINC000477589488    0.1700
     54 H54        -6.8935    5.2606   49.1677 H       1  ZINC000477589488    0.1000
     55 H55        -5.7925    5.1560   50.5630 H       1  ZINC000477589488    0.0600
     56 H56        -4.7659    3.9938   48.6818 H       1  ZINC000477589488    0.0800
     57 H57        -6.2405    3.0227   48.4310 H       1  ZINC000477589488    0.0900
@<TRIPOS>BOND
     1     1     2    2
     2     2     3   am
     3     2    22   am
     4     3     4    1
     5     3    34    1
     6     4     5    1
     7     4     6    1
     8     4    12    1
     9     6    11   ar
    10     6     7   ar
    11     7     8   ar
    12     7    35    1
    13     8     9   ar
    14     8    36    1
    15     9    10   ar
    16     9    37    1
    17    10    11   ar
    18    10    38    1
    19    11    39    1
    20    12    21   ar
    21    12    13   ar
    22    13    18   ar
    23    13    14   ar
    24    14    15   ar
    25    14    40    1
    26    15    16   ar
    27    15    41    1
    28    16    17   ar
    29    16    42    1
    30    17    18   ar
    31    17    43    1
    32    18    19   ar
    33    19    20   ar
    34    19    44    1
    35    20    21   ar
    36    20    45    1
    37    21    46    1
    38    22    33    1
    39    22    23    1
    40    23    24    1
    41    23    47    1
    42    23    48    1
    43    24    25    1
    44    24    49    1
    45    24    50    1
    46    25    26    1
    47    25    32    1
    48    26    31   ar
    49    26    27   ar
    50    27    28   ar
    51    27    51    1
    52    28    29   ar
    53    28    52    1
    54    29    30   ar
    55    29    53    1
    56    30    31   ar
    57    32    33    1
    58    32    54    1
    59    32    55    1
    60    33    56    1
    61    33    57    1
@<TRIPOS>SUBSTRUCTURE
     1 ZINC000477589488        1 TEMP              0 ****  ****    0 ROOT


##########                                Name:    ZINC000944933040
##########                DOCK_Rotatable_Bonds:                   4
##########                         Heavy_Atoms:                  26
##########                    Molecular_Weight:             354.449
##########                DOCK_Rotatable_Bonds:                   4
##########                       Formal_Charge:           0.0100002
##########                     HBond_Acceptors:                   5
##########                        HBond_Donors:                   0
##########                         Heavy_Atoms:                  26
##########                          Grid_Score:          -26.613270
##########                     Grid_vdw_energy:          -25.763908
##########                      Grid_es_energy:           -0.849361
##########           Internal_energy_repulsive:            9.817097

@<TRIPOS>MOLECULE
ZINC000944933040
 52 57 1 0 0
SMALL
USER_CHARGES


@<TRIPOS>ATOM
      1 O1         -1.7299    4.0325   50.8291 O.2     1  ZINC000944933040   -0.5200
      2 C2         -2.2249    3.0245   50.3621 C.2     1  ZINC000944933040    0.6400
      3 C3         -3.4115    2.4735   50.9444 C.1     1  ZINC000944933040   -0.2200
      4 C4         -4.3843    2.0218   51.4218 C.1     1  ZINC000944933040   -0.0400
      5 C5         -5.6040    1.4554   52.0203 C.3     1  ZINC000944933040   -0.0700
      6 C6         -6.6805    2.4354   52.4912 C.3     1  ZINC000944933040   -0.1600
      7 C7         -6.9082    1.5957   51.2327 C.3     1  ZINC000944933040   -0.1600
      8 N8         -1.6598    2.4292   49.2932 N.am    1  ZINC000944933040   -0.6000
      9 C9         -2.2559    1.2184   48.7132 C.3     1  ZINC000944933040    0.1100
     10 C10        -1.1942    0.1125   48.6818 C.3     1  ZINC000944933040   -0.1200
     11 C11         0.0594    0.6424   47.9901 C.3     1  ZINC000944933040   -0.0900
     12 C12         1.1081   -0.4410   47.7033 C.3     1  ZINC000944933040    0.1200
     13 N13         1.2724    0.2123   46.3892 N.am    1  ZINC000944933040   -0.6400
     14 C14         2.2668    0.2695   45.4813 C.2     1  ZINC000944933040    0.5500
     15 O15         3.3103   -0.3131   45.6873 O.2     1  ZINC000944933040   -0.5300
     16 C16         2.0820    1.0575   44.2100 C.3     1  ZINC000944933040   -0.1300
     17 H17         1.0268    1.1147   43.9428 H       1  ZINC000944933040    0.1100
     18 C18         2.9082    0.4373   43.0546 C.3     1  ZINC000944933040   -0.1300
     19 C19         3.8924    1.5855   42.6792 C.3     1  ZINC000944933040    0.0900
     20 H20         4.7992    1.2733   42.1612 H       1  ZINC000944933040    0.1300
     21 O21         4.0938    2.2264   43.9815 O.3     1  ZINC000944933040   -0.3600
     22 C22         2.6939    2.4836   44.3506 C.3     1  ZINC000944933040    0.1200
     23 H23         2.5416    2.9779   45.3101 H       1  ZINC000944933040    0.1400
     24 C24         2.1915    3.2733   43.1049 C.3     1  ZINC000944933040   -0.2000
     25 H25         1.1259    3.4890   43.0272 H       1  ZINC000944933040    0.1200
     26 C26         3.2101    4.1506   42.3743 C.3     1  ZINC000944933040   -0.1300
     27 C27         3.0260    2.6426   41.9310 C.3     1  ZINC000944933040   -0.2000
     28 H28         2.6077    2.4054   40.9527 H       1  ZINC000944933040    0.1300
     29 C29        -0.0897    0.7769   46.4681 C.3     1  ZINC000944933040    0.1100
     30 C30         0.6345    1.8882   48.6596 C.3     1  ZINC000944933040   -0.1100
     31 C31        -0.4426    2.9855   48.6877 C.3     1  ZINC000944933040    0.1100
     32 H32        -5.4629    0.5447   52.6021 H       1  ZINC000944933040    0.1400
     33 H33        -7.2478    2.1694   53.3832 H       1  ZINC000944933040    0.1100
     34 H34        -6.4855    3.4995   52.3578 H       1  ZINC000944933040    0.1000
     35 H35        -6.8631    2.1073   50.2713 H       1  ZINC000944933040    0.1000
     36 H36        -7.6253    0.7772   51.2966 H       1  ZINC000944933040    0.1100
     37 H37        -3.0995    0.8978   49.3243 H       1  ZINC000944933040    0.0900
     38 H38        -2.5953    1.4280   47.6989 H       1  ZINC000944933040    0.0800
     39 H39        -0.9491   -0.1864   49.7011 H       1  ZINC000944933040    0.0800
     40 H40        -1.5786   -0.7462   48.1316 H       1  ZINC000944933040    0.0900
     41 H41         1.9910   -0.3775   48.3393 H       1  ZINC000944933040    0.0800
     42 H42         0.6952   -1.4481   47.6451 H       1  ZINC000944933040    0.0900
     43 H43         3.4535   -0.4417   43.3982 H       1  ZINC000944933040    0.0800
     44 H44         2.2652    0.1885   42.2103 H       1  ZINC000944933040    0.0900
     45 H45         2.8226    4.9106   41.6957 H       1  ZINC000944933040    0.1000
     46 H46         4.1166    4.4233   42.9147 H       1  ZINC000944933040    0.1000
     47 H47        -0.8585    0.1317   46.0430 H       1  ZINC000944933040    0.0900
     48 H48        -0.1589    1.8083   46.1226 H       1  ZINC000944933040    0.0800
     49 H49         0.9388    1.6469   49.6781 H       1  ZINC000944933040    0.0800
     50 H50         1.4971    2.2405   48.0941 H       1  ZINC000944933040    0.0800
     51 H51        -0.6526    3.3175   47.6710 H       1  ZINC000944933040    0.0700
     52 H52        -0.0910    3.8275   49.2841 H       1  ZINC000944933040    0.1000
@<TRIPOS>BOND
     1     1     2    2
     2     2     3    1
     3     2     8   am
     4     3     4    3
     5     4     5    1
     6     5     7    1
     7     5     6    1
     8     5    32    1
     9     6     7    1
    10     6    33    1
    11     6    34    1
    12     7    35    1
    13     7    36    1
    14     8    31    1
    15     8     9    1
    16     9    10    1
    17     9    37    1
    18     9    38    1
    19    10    11    1
    20    10    39    1
    21    10    40    1
    22    11    29    1
    23    11    12    1
    24    11    30    1
    25    12    13    1
    26    12    41    1
    27    12    42    1
    28    13    14   am
    29    13    29    1
    30    14    15    2
    31    14    16    1
    32    16    17    1
    33    16    22    1
    34    16    18    1
    35    18    19    1
    36    18    43    1
    37    18    44    1
    38    19    20    1
    39    19    27    1
    40    19    21    1
    41    21    22    1
    42    22    23    1
    43    22    24    1
    44    24    25    1
    45    24    27    1
    46    24    26    1
    47    26    27    1
    48    26    45    1
    49    26    46    1
    50    27    28    1
    51    29    47    1
    52    29    48    1
    53    30    31    1
    54    30    49    1
    55    30    50    1
    56    31    51    1
    57    31    52    1
@<TRIPOS>SUBSTRUCTURE
     1 ZINC000944933040        1 TEMP              0 ****  ****    0 ROOT


##########                                Name:    ZINC000623581528
##########                DOCK_Rotatable_Bonds:                   5
##########                         Heavy_Atoms:                  26
##########                    Molecular_Weight:             355.369
##########                DOCK_Rotatable_Bonds:                   5
##########                       Formal_Charge:        -4.47035e-07
##########                     HBond_Acceptors:                   7
##########                        HBond_Donors:                   2
##########                         Heavy_Atoms:                  26
##########                          Grid_Score:          -26.598436
##########                     Grid_vdw_energy:          -25.161173
##########                      Grid_es_energy:           -1.437264
##########           Internal_energy_repulsive:           38.983624

@<TRIPOS>MOLECULE
ZINC000623581528
 44 47 1 0 0
SMALL
USER_CHARGES


@<TRIPOS>ATOM
      1 C1         -6.1391    2.5824   53.5990 C.3     1  ZINC000623581528    0.1000
      2 N2         -5.6817    2.0457   52.3148 N.am    1  ZINC000623581528   -0.5500
      3 C3         -6.3559    1.1872   51.5243 C.2     1  ZINC000623581528    0.6300
      4 O4         -7.4556    0.7273   51.7644 O.2     1  ZINC000623581528   -0.4800
      5 O5         -5.6253    0.9186   50.4307 O.3     1  ZINC000623581528   -0.2300
      6 C6         -4.4575    1.6038   50.4959 C.ar    1  ZINC000623581528    0.0400
      7 C7         -3.3630    1.6886   49.6502 C.ar    1  ZINC000623581528   -0.0800
      8 C8         -2.2902    2.4902   49.9900 C.ar    1  ZINC000623581528   -0.0900
      9 C9         -2.3025    3.2094   51.1720 C.ar    1  ZINC000623581528   -0.0900
     10 C10        -1.1274    4.0809   51.5336 C.3     1  ZINC000623581528    0.1800
     11 N11        -0.1519    3.2948   52.2931 N.am    1  ZINC000623581528   -0.7400
     12 C12         0.8546    2.6685   51.6518 C.2     1  ZINC000623581528    0.7100
     13 O13         0.9522    2.7547   50.4429 O.2     1  ZINC000623581528   -0.5800
     14 N14         1.7529    1.9467   52.3507 N.am    1  ZINC000623581528   -0.7300
     15 C15         2.8481    1.2674   51.6539 C.3     1  ZINC000623581528    0.2000
     16 H16         3.1129    0.3468   52.1738 H       1  ZINC000623581528    0.1000
     17 C17         4.0761    2.1969   51.5518 C.3     1  ZINC000623581528   -0.1300
     18 C18         3.8644    2.8763   50.1821 C.3     1  ZINC000623581528   -0.0800
     19 C19         3.0399    1.8953   49.3764 C.ar    1  ZINC000623581528   -0.1000
     20 C20         2.8187    1.8184   48.0116 C.ar    1  ZINC000623581528   -0.0800
     21 C21         2.0171    0.8211   47.4919 C.ar    1  ZINC000623581528   -0.1400
     22 C22         1.4318   -0.1053   48.3379 C.ar    1  ZINC000623581528    0.0900
     23 F23         0.6475   -1.0824   47.8327 F       1  ZINC000623581528   -0.1400
     24 C24         1.6519   -0.0289   49.7018 C.ar    1  ZINC000623581528   -0.1200
     25 C25         2.4548    0.9683   50.2231 C.ar    1  ZINC000623581528   -0.0900
     26 C26        -3.3894    3.1311   52.0216 C.ar    1  ZINC000623581528   -0.0800
     27 C27        -4.4718    2.3343   51.6843 C.ar    1  ZINC000623581528    0.0700
     28 H28        -6.6949    3.5047   53.4301 H       1  ZINC000623581528    0.0800
     29 H29        -6.7852    1.8533   54.0882 H       1  ZINC000623581528    0.0900
     30 H30        -5.2776    2.7884   54.2343 H       1  ZINC000623581528    0.0900
     31 H31        -3.3485    1.1286   48.7270 H       1  ZINC000623581528    0.1500
     32 H32        -1.4377    2.5554   49.3301 H       1  ZINC000623581528    0.1500
     33 H33        -0.6609    4.4578   50.6235 H       1  ZINC000623581528    0.0800
     34 H34        -1.4700    4.9192   52.1404 H       1  ZINC000623581528    0.0800
     35 H35        -0.2305    3.2251   53.2574 H       1  ZINC000623581528    0.4000
     36 H36         1.6744    1.8769   53.3150 H       1  ZINC000623581528    0.4000
     37 H37         4.0719    2.9340   52.3547 H       1  ZINC000623581528    0.0900
     38 H38         5.0006    1.6196   51.5591 H       1  ZINC000623581528    0.0900
     39 H39         3.3228    3.8143   50.3049 H       1  ZINC000623581528    0.0800
     40 H40         4.8236    3.0535   49.6956 H       1  ZINC000623581528    0.0800
     41 H41         3.2751    2.5407   47.3511 H       1  ZINC000623581528    0.1300
     42 H42         1.8468    0.7641   46.4269 H       1  ZINC000623581528    0.1400
     43 H43         1.1955   -0.7514   50.3622 H       1  ZINC000623581528    0.1400
     44 H44        -3.3973    3.6932   52.9437 H       1  ZINC000623581528    0.1400
@<TRIPOS>BOND
     1     1     2    1
     2     1    28    1
     3     1    29    1
     4     1    30    1
     5     2    27    1
     6     2     3   am
     7     3     4    2
     8     3     5    1
     9     5     6    1
    10     6    27   ar
    11     6     7   ar
    12     7     8   ar
    13     7    31    1
    14     8     9   ar
    15     8    32    1
    16     9    10    1
    17     9    26   ar
    18    10    11    1
    19    10    33    1
    20    10    34    1
    21    11    12   am
    22    11    35    1
    23    12    13    2
    24    12    14   am
    25    14    15    1
    26    14    36    1
    27    15    16    1
    28    15    25    1
    29    15    17    1
    30    17    18    1
    31    17    37    1
    32    17    38    1
    33    18    19    1
    34    18    39    1
    35    18    40    1
    36    19    25   ar
    37    19    20   ar
    38    20    21   ar
    39    20    41    1
    40    21    22   ar
    41    21    42    1
    42    22    23    1
    43    22    24   ar
    44    24    25   ar
    45    24    43    1
    46    26    27   ar
    47    26    44    1
@<TRIPOS>SUBSTRUCTURE
     1 ZINC000623581528        1 TEMP              0 ****  ****    0 ROOT


##########                                Name:    ZINC000001174632
##########                DOCK_Rotatable_Bonds:                   6
##########                         Heavy_Atoms:                  29
##########                    Molecular_Weight:             385.419
##########                DOCK_Rotatable_Bonds:                   6
##########                       Formal_Charge:           0.0400005
##########                     HBond_Acceptors:                   5
##########                        HBond_Donors:                   1
##########                         Heavy_Atoms:                  29
##########                          Grid_Score:          -26.579187
##########                     Grid_vdw_energy:          -25.440624
##########                      Grid_es_energy:           -1.138563
##########           Internal_energy_repulsive:           13.593343

@<TRIPOS>MOLECULE
ZINC000001174632
 48 51 1 0 0
SMALL
USER_CHARGES


@<TRIPOS>ATOM
      1 C1        -11.4086   -0.8036   51.5618 C.3     1  ZINC000001174632    0.0400
      2 O2        -11.8469    0.2830   52.4192 O.3     1  ZINC000001174632   -0.3500
      3 C3        -11.3876    0.2860   53.6862 C.2     1  ZINC000001174632    0.5200
      4 O4        -10.5179   -0.4947   54.0190 O.2     1  ZINC000001174632   -0.5200
      5 C5        -11.9399    1.2362   54.6678 C.ar    1  ZINC000001174632   -0.2000
      6 C6        -12.3056    2.5245   54.2703 C.ar    1  ZINC000001174632   -0.0200
      7 C7        -12.8221    3.4081   55.1934 C.ar    1  ZINC000001174632   -0.1800
      8 C8        -12.9813    3.0263   56.5158 C.ar    1  ZINC000001174632   -0.0300
      9 C9        -12.6245    1.7572   56.9247 C.ar    1  ZINC000001174632   -0.1900
     10 C10       -12.1075    0.8502   56.0080 C.ar    1  ZINC000001174632    0.2600
     11 N11       -11.7481   -0.4274   56.4168 N.pl3   1  ZINC000001174632   -0.6500
     12 C12       -12.5994   -1.1608   57.2024 C.2     1  ZINC000001174632    0.2300
     13 C13       -12.3609   -1.5310   58.5121 C.2     1  ZINC000001174632   -0.1800
     14 C14       -11.1504   -1.2044   59.2980 C.ar    1  ZINC000001174632   -0.0600
     15 C15       -11.1043   -0.0348   60.0582 C.ar    1  ZINC000001174632   -0.0600
     16 C16        -9.9742    0.2661   60.7893 C.ar    1  ZINC000001174632   -0.1500
     17 C17        -8.8835   -0.5923   60.7695 C.ar    1  ZINC000001174632    0.1400
     18 O18        -7.7715   -0.2921   61.4916 O.3     1  ZINC000001174632   -0.3200
     19 C19        -7.7541    0.9701   62.1615 C.3     1  ZINC000001174632    0.0300
     20 C20        -8.9254   -1.7566   60.0148 C.ar    1  ZINC000001174632   -0.2100
     21 C21       -10.0540   -2.0678   59.2858 C.ar    1  ZINC000001174632   -0.0500
     22 C22       -13.5143   -2.3035   58.9908 C.2     1  ZINC000001174632    0.4500
     23 O23       -13.6505   -2.7892   60.0967 O.2     1  ZINC000001174632   -0.4100
     24 C24       -14.4855   -2.3787   57.8647 C.ar    1  ZINC000001174632   -0.1600
     25 C25       -15.7286   -2.9691   57.7357 C.ar    1  ZINC000001174632   -0.0500
     26 C26       -16.4206   -2.8724   56.5324 C.ar    1  ZINC000001174632   -0.1100
     27 C27       -15.8708   -2.1903   55.4687 C.ar    1  ZINC000001174632   -0.0900
     28 C28       -14.6216   -1.5927   55.5871 C.ar    1  ZINC000001174632   -0.0800
     29 C29       -13.9244   -1.6766   56.7834 C.ar    1  ZINC000001174632   -0.0600
     30 H30       -11.7248   -1.7548   51.9902 H       1  ZINC000001174632    0.0700
     31 H31       -11.8501   -0.6864   50.5721 H       1  ZINC000001174632    0.1100
     32 H32       -10.3218   -0.7857   51.4792 H       1  ZINC000001174632    0.0700
     33 H33       -12.1834    2.8278   53.2411 H       1  ZINC000001174632    0.1400
     34 H34       -13.1039    4.4039   54.8843 H       1  ZINC000001174632    0.1300
     35 H35       -13.3869    3.7262   57.2313 H       1  ZINC000001174632    0.1300
     36 H36       -12.7510    1.4676   57.9575 H       1  ZINC000001174632    0.1300
     37 H37       -10.8948   -0.8010   56.1464 H       1  ZINC000001174632    0.4300
     38 H38       -11.9523    0.6339   60.0736 H       1  ZINC000001174632    0.1300
     39 H39        -9.9378    1.1709   61.3777 H       1  ZINC000001174632    0.1300
     40 H40        -7.8532    1.7714   61.4293 H       1  ZINC000001174632    0.0600
     41 H41        -8.5835    1.0182   62.8672 H       1  ZINC000001174632    0.0600
     42 H42        -6.8127    1.0833   62.6989 H       1  ZINC000001174632    0.1000
     43 H43        -8.0746   -2.4216   60.0017 H       1  ZINC000001174632    0.1300
     44 H44       -10.0860   -2.9740   58.6991 H       1  ZINC000001174632    0.1300
     45 H45       -16.1619   -3.5049   58.5672 H       1  ZINC000001174632    0.1400
     46 H46       -17.3919   -3.3337   56.4316 H       1  ZINC000001174632    0.1400
     47 H47       -16.4135   -2.1201   54.5377 H       1  ZINC000001174632    0.1400
     48 H48       -14.1959   -1.0595   54.7499 H       1  ZINC000001174632    0.1300
@<TRIPOS>BOND
     1     1     2    1
     2     1    30    1
     3     1    31    1
     4     1    32    1
     5     2     3    1
     6     3     4    2
     7     3     5    1
     8     5    10   ar
     9     5     6   ar
    10     6     7   ar
    11     6    33    1
    12     7     8   ar
    13     7    34    1
    14     8     9   ar
    15     8    35    1
    16     9    10   ar
    17     9    36    1
    18    10    11    1
    19    11    12    1
    20    11    37    1
    21    12    29    1
    22    12    13    2
    23    13    14    1
    24    13    22    1
    25    14    21   ar
    26    14    15   ar
    27    15    16   ar
    28    15    38    1
    29    16    17   ar
    30    16    39    1
    31    17    18    1
    32    17    20   ar
    33    18    19    1
    34    19    40    1
    35    19    41    1
    36    19    42    1
    37    20    21   ar
    38    20    43    1
    39    21    44    1
    40    22    23    2
    41    22    24    1
    42    24    29   ar
    43    24    25   ar
    44    25    26   ar
    45    25    45    1
    46    26    27   ar
    47    26    46    1
    48    27    28   ar
    49    27    47    1
    50    28    29   ar
    51    28    48    1
@<TRIPOS>SUBSTRUCTURE
     1 ZINC000001174632        1 TEMP              0 ****  ****    0 ROOT


##########                                Name:    ZINC000481050680
##########                DOCK_Rotatable_Bonds:                   7
##########                         Heavy_Atoms:                  29
##########                    Molecular_Weight:              412.46
##########                DOCK_Rotatable_Bonds:                   7
##########                       Formal_Charge:          -0.0199997
##########                     HBond_Acceptors:                   7
##########                        HBond_Donors:                   1
##########                         Heavy_Atoms:                  29
##########                          Grid_Score:          -26.568287
##########                     Grid_vdw_energy:          -25.635767
##########                      Grid_es_energy:           -0.932521
##########           Internal_energy_repulsive:           13.542981

@<TRIPOS>MOLECULE
ZINC000481050680
 47 49 1 0 0
SMALL
USER_CHARGES


@<TRIPOS>ATOM
      1 N1          2.3831    3.6021   52.7237 N.1     1  ZINC000481050680   -0.3900
      2 C2          1.8353    2.9193   51.9998 C.1     1  ZINC000481050680    0.2500
      3 C3          1.1447    2.0584   51.0873 C.ar    1  ZINC000481050680    0.0200
      4 C4          1.7707    0.9114   50.5957 C.ar    1  ZINC000481050680   -0.0800
      5 C5          1.1006    0.0852   49.7171 C.ar    1  ZINC000481050680   -0.0800
      6 C6         -0.1892    0.3902   49.3221 C.ar    1  ZINC000481050680   -0.1000
      7 C7         -0.9145   -0.5173   48.3622 C.3     1  ZINC000481050680   -0.5900
      8 S8         -0.6127    0.0364   46.6614 S.o2    1  ZINC000481050680    2.6000
      9 O9         -0.5641   -1.0744   45.7765 O.2     1  ZINC000481050680   -0.9300
     10 O10        -1.4033    1.1784   46.3610 O.2     1  ZINC000481050680   -0.9400
     11 N11         0.9409    0.6096   46.6830 N.am    1  ZINC000481050680   -1.1100
     12 C12         1.5394    1.1499   45.4599 C.3     1  ZINC000481050680    0.2100
     13 H13         1.1042    0.6535   44.5925 H       1  ZINC000481050680    0.1000
     14 C14         3.0500    0.9079   45.4813 C.3     1  ZINC000481050680   -0.0800
     15 C15         3.6479    1.3479   44.1700 C.ar    1  ZINC000481050680   -0.0900
     16 C16         3.7476    0.4531   43.1210 C.ar    1  ZINC000481050680   -0.1200
     17 C17         4.2961    0.8566   41.9180 C.ar    1  ZINC000481050680   -0.1200
     18 C18         4.7447    2.1551   41.7639 C.ar    1  ZINC000481050680   -0.1200
     19 C19         4.6444    3.0501   42.8126 C.ar    1  ZINC000481050680   -0.1200
     20 C20         4.0918    2.6477   44.0142 C.ar    1  ZINC000481050680   -0.1200
     21 C21         1.2689    2.6302   45.3797 C.ar    1  ZINC000481050680   -0.1300
     22 C22         0.8086    3.1859   44.2013 C.ar    1  ZINC000481050680   -0.0700
     23 C23         0.5603    4.5442   44.1276 C.ar    1  ZINC000481050680   -0.1300
     24 C24         0.7726    5.3476   45.2321 C.ar    1  ZINC000481050680   -0.0900
     25 C25         1.2335    4.7940   46.4117 C.ar    1  ZINC000481050680   -0.1500
     26 C26         1.4761    3.4332   46.4888 C.ar    1  ZINC000481050680    0.1100
     27 F27         1.9265    2.8911   47.6413 F       1  ZINC000481050680   -0.1400
     28 C28        -0.8179    1.5268   49.8059 C.ar    1  ZINC000481050680    0.1200
     29 F29        -2.0782    1.8182   49.4161 F       1  ZINC000481050680   -0.1200
     30 C30        -0.1594    2.3596   50.6900 C.ar    1  ZINC000481050680   -0.1000
     31 H31         2.7781    0.6713   50.9025 H       1  ZINC000481050680    0.1500
     32 H32         1.5847   -0.8021   49.3364 H       1  ZINC000481050680    0.1500
     33 H33        -0.5509   -1.5379   48.4820 H       1  ZINC000481050680    0.1500
     34 H34        -1.9840   -0.4858   48.5702 H       1  ZINC000481050680    0.1500
     35 H35         1.4545    0.5876   47.5056 H       1  ZINC000481050680    0.4200
     36 H36         3.4978    1.4789   46.2947 H       1  ZINC000481050680    0.0900
     37 H37         3.2456   -0.1537   45.6320 H       1  ZINC000481050680    0.0900
     38 H38         3.3971   -0.5614   43.2413 H       1  ZINC000481050680    0.1200
     39 H39         4.3745    0.1574   41.0987 H       1  ZINC000481050680    0.1200
     40 H40         5.1739    2.4701   40.8243 H       1  ZINC000481050680    0.1200
     41 H41         4.9951    4.0644   42.6923 H       1  ZINC000481050680    0.1200
     42 H42         4.0134    3.3469   44.8335 H       1  ZINC000481050680    0.1200
     43 H43         0.6430    2.5592   43.3375 H       1  ZINC000481050680    0.1300
     44 H44         0.2005    4.9776   43.2061 H       1  ZINC000481050680    0.1300
     45 H45         0.5787    6.4085   45.1732 H       1  ZINC000481050680    0.1300
     46 H46         1.3999    5.4222   47.2744 H       1  ZINC000481050680    0.1400
     47 H47        -0.6494    3.2450   51.0671 H       1  ZINC000481050680    0.1600
@<TRIPOS>BOND
     1     1     2    3
     2     2     3    1
     3     3    30   ar
     4     3     4   ar
     5     4     5   ar
     6     4    31    1
     7     5     6   ar
     8     5    32    1
     9     6     7    1
    10     6    28   ar
    11     7     8    1
    12     7    33    1
    13     7    34    1
    14     8     9    2
    15     8    10    2
    16     8    11   am
    17    11    12    1
    18    11    35    1
    19    12    13    1
    20    12    14    1
    21    12    21    1
    22    14    15    1
    23    14    36    1
    24    14    37    1
    25    15    20   ar
    26    15    16   ar
    27    16    17   ar
    28    16    38    1
    29    17    18   ar
    30    17    39    1
    31    18    19   ar
    32    18    40    1
    33    19    20   ar
    34    19    41    1
    35    20    42    1
    36    21    26   ar
    37    21    22   ar
    38    22    23   ar
    39    22    43    1
    40    23    24   ar
    41    23    44    1
    42    24    25   ar
    43    24    45    1
    44    25    26   ar
    45    25    46    1
    46    26    27    1
    47    28    29    1
    48    28    30   ar
    49    30    47    1
@<TRIPOS>SUBSTRUCTURE
     1 ZINC000481050680        1 TEMP              0 ****  ****    0 ROOT


##########                                Name:    ZINC000464867530
##########                DOCK_Rotatable_Bonds:                   8
##########                         Heavy_Atoms:                  30
##########                    Molecular_Weight:              422.49
##########                DOCK_Rotatable_Bonds:                   8
##########                       Formal_Charge:         -0.00999994
##########                     HBond_Acceptors:                   7
##########                        HBond_Donors:                   0
##########                         Heavy_Atoms:                  30
##########                          Grid_Score:          -26.551479
##########                     Grid_vdw_energy:          -26.170485
##########                      Grid_es_energy:           -0.380996
##########           Internal_energy_repulsive:           37.466866

@<TRIPOS>MOLECULE
ZINC000464867530
 59 62 1 0 0
SMALL
USER_CHARGES


@<TRIPOS>ATOM
      1 C1         -8.5431    2.5204   63.1376 C.3     1  ZINC000464867530   -0.1500
      2 C2         -8.0013    1.1233   62.8288 C.3     1  ZINC000464867530   -0.1400
      3 C3         -9.0776    0.0798   63.1348 C.3     1  ZINC000464867530    0.0900
      4 N4         -9.9360   -0.0952   61.9605 N.am    1  ZINC000464867530   -0.6100
      5 C5         -9.4933   -0.9407   60.8491 C.3     1  ZINC000464867530    0.0700
      6 C6         -8.9782   -0.0579   59.7104 C.3     1  ZINC000464867530    0.4300
      7 F7         -7.6015   -0.2527   59.5556 F       1  ZINC000464867530   -0.1700
      8 F8         -9.6339   -0.3992   58.5227 F       1  ZINC000464867530   -0.1800
      9 F9         -9.2283    1.2851   60.0119 F       1  ZINC000464867530   -0.1800
     10 C10       -11.1329    0.5217   61.9029 C.2     1  ZINC000464867530    0.5300
     11 O11       -11.4992    1.2217   62.8231 O.2     1  ZINC000464867530   -0.5100
     12 C12       -12.0159    0.3419   60.6950 C.3     1  ZINC000464867530   -0.1200
     13 H13       -11.4477   -0.1360   59.8969 H       1  ZINC000464867530    0.1000
     14 C14       -12.5151    1.7080   60.2192 C.3     1  ZINC000464867530   -0.1200
     15 C15       -13.3853    1.5294   58.9731 C.3     1  ZINC000464867530   -0.1300
     16 C16       -14.6010    0.6656   59.3236 C.3     1  ZINC000464867530    0.1000
     17 N17       -14.1310   -0.5936   59.9170 N.am    1  ZINC000464867530   -0.6100
     18 C18       -14.5317   -1.7797   59.4177 C.2     1  ZINC000464867530    0.5500
     19 O19       -14.1379   -2.8122   59.9173 O.2     1  ZINC000464867530   -0.5300
     20 C20       -15.4691   -1.8228   58.2385 C.3     1  ZINC000464867530   -0.1700
     21 H21       -16.2921   -1.1086   58.2656 H       1  ZINC000464867530    0.1300
     22 C22       -15.7375   -3.1874   57.5978 C.3     1  ZINC000464867530   -0.1300
     23 C23       -14.8727   -2.1586   56.8768 C.3     1  ZINC000464867530   -0.0600
     24 C24       -13.3598   -2.3718   56.7019 C.3     1  ZINC000464867530   -0.0900
     25 C25       -12.9821   -1.2425   55.7179 C.3     1  ZINC000464867530   -0.0800
     26 C26       -14.2511   -0.9458   54.9469 C.ar    1  ZINC000464867530   -0.0900
     27 C27       -14.4380   -0.2683   53.7544 C.ar    1  ZINC000464867530   -0.1100
     28 C28       -15.7077   -0.1159   53.2318 C.ar    1  ZINC000464867530   -0.1100
     29 C29       -16.7964   -0.6416   53.9016 C.ar    1  ZINC000464867530   -0.1200
     30 C30       -16.6126   -1.3183   55.0917 C.ar    1  ZINC000464867530   -0.1000
     31 C31       -15.3412   -1.4730   55.6177 C.ar    1  ZINC000464867530   -0.0700
     32 C32       -13.2156   -0.5361   61.0648 C.3     1  ZINC000464867530    0.1300
     33 H33        -9.4219    2.7135   62.5224 H       1  ZINC000464867530    0.0600
     34 H34        -8.8170    2.5792   64.1910 H       1  ZINC000464867530    0.0600
     35 H35        -7.7764    3.2639   62.9196 H       1  ZINC000464867530    0.0600
     36 H36        -7.7274    1.0645   61.7754 H       1  ZINC000464867530    0.0700
     37 H37        -7.1225    0.9302   63.4440 H       1  ZINC000464867530    0.0700
     38 H38        -8.6031   -0.8697   63.3827 H       1  ZINC000464867530    0.0900
     39 H39        -9.6802    0.4160   63.9785 H       1  ZINC000464867530    0.0900
     40 H40        -8.6934   -1.5984   61.1892 H       1  ZINC000464867530    0.1300
     41 H41       -10.3306   -1.5409   60.4932 H       1  ZINC000464867530    0.1200
     42 H42       -13.1036    2.1749   61.0091 H       1  ZINC000464867530    0.0800
     43 H43       -11.6622    2.3427   59.9787 H       1  ZINC000464867530    0.0800
     44 H44       -13.7214    2.5048   58.6212 H       1  ZINC000464867530    0.0900
     45 H45       -12.8048    1.0401   58.1910 H       1  ZINC000464867530    0.0700
     46 H46       -15.2307    1.1942   60.0393 H       1  ZINC000464867530    0.0700
     47 H47       -15.1712    0.4530   58.4193 H       1  ZINC000464867530    0.0900
     48 H48       -15.2361   -4.0537   58.0293 H       1  ZINC000464867530    0.1100
     49 H49       -16.7368   -3.3704   57.2027 H       1  ZINC000464867530    0.1100
     50 H50       -12.8384   -2.2497   57.6513 H       1  ZINC000464867530    0.0700
     51 H51       -13.1534   -3.3501   56.2676 H       1  ZINC000464867530    0.0800
     52 H52       -12.6565   -0.3577   56.2649 H       1  ZINC000464867530    0.0800
     53 H53       -12.1977   -1.5786   55.0398 H       1  ZINC000464867530    0.0800
     54 H54       -13.5879    0.1431   53.2306 H       1  ZINC000464867530    0.1200
     55 H55       -15.8494    0.4136   52.3012 H       1  ZINC000464867530    0.1300
     56 H56       -17.7899   -0.5231   53.4951 H       1  ZINC000464867530    0.1300
     57 H57       -17.4643   -1.7282   55.6142 H       1  ZINC000464867530    0.1200
     58 H58       -12.8722   -1.5413   61.3092 H       1  ZINC000464867530    0.1000
     59 H59       -13.7319   -0.1054   61.9228 H       1  ZINC000464867530    0.0800
@<TRIPOS>BOND
     1     1     2    1
     2     1    33    1
     3     1    34    1
     4     1    35    1
     5     2     3    1
     6     2    36    1
     7     2    37    1
     8     3     4    1
     9     3    38    1
    10     3    39    1
    11     4     5    1
    12     4    10   am
    13     5     6    1
    14     5    40    1
    15     5    41    1
    16     6     7    1
    17     6     8    1
    18     6     9    1
    19    10    11    2
    20    10    12    1
    21    12    13    1
    22    12    32    1
    23    12    14    1
    24    14    15    1
    25    14    42    1
    26    14    43    1
    27    15    16    1
    28    15    44    1
    29    15    45    1
    30    16    17    1
    31    16    46    1
    32    16    47    1
    33    17    18   am
    34    17    32    1
    35    18    19    2
    36    18    20    1
    37    20    21    1
    38    20    23    1
    39    20    22    1
    40    22    23    1
    41    22    48    1
    42    22    49    1
    43    23    31    1
    44    23    24    1
    45    24    25    1
    46    24    50    1
    47    24    51    1
    48    25    26    1
    49    25    52    1
    50    25    53    1
    51    26    31   ar
    52    26    27   ar
    53    27    28   ar
    54    27    54    1
    55    28    29   ar
    56    28    55    1
    57    29    30   ar
    58    29    56    1
    59    30    31   ar
    60    30    57    1
    61    32    58    1
    62    32    59    1
@<TRIPOS>SUBSTRUCTURE
     1 ZINC000464867530        1 TEMP              0 ****  ****    0 ROOT


##########                                Name:    ZINC000518234532
##########                DOCK_Rotatable_Bonds:                   5
##########                         Heavy_Atoms:                  25
##########                    Molecular_Weight:             408.267
##########                DOCK_Rotatable_Bonds:                   5
##########                       Formal_Charge:         -0.00999981
##########                     HBond_Acceptors:                   5
##########                        HBond_Donors:                   1
##########                         Heavy_Atoms:                  25
##########                          Grid_Score:          -26.547491
##########                     Grid_vdw_energy:          -26.854778
##########                      Grid_es_energy:            0.307287
##########           Internal_energy_repulsive:           20.133638

@<TRIPOS>MOLECULE
ZINC000518234532
 44 46 1 0 0
SMALL
USER_CHARGES


@<TRIPOS>ATOM
      1 C1         -1.2751    3.0141   50.8790 C.3     1  ZINC000518234532   -0.1600
      2 C2         -1.9302    2.0503   49.8875 C.3     1  ZINC000518234532    0.1800
      3 H3         -1.8999    1.0381   50.2908 H       1  ZINC000518234532    0.1100
      4 N4         -3.3233    2.4473   49.6684 N.am    1  ZINC000518234532   -0.7300
      5 C5         -4.2589    2.1627   50.5959 C.2     1  ZINC000518234532    0.5200
      6 O6         -3.9477    1.5767   51.6111 O.2     1  ZINC000518234532   -0.5200
      7 C7         -5.6915    2.5727   50.3714 C.3     1  ZINC000518234532   -0.0700
      8 H8         -6.2040    1.8021   49.7954 H       1  ZINC000518234532    0.1100
      9 C9         -5.7291    3.8944   49.6019 C.3     1  ZINC000518234532   -0.1400
     10 C10        -6.3787    2.7461   51.7013 C.ar    1  ZINC000518234532   -0.1000
     11 C11        -7.5424    2.0524   51.9737 C.ar    1  ZINC000518234532   -0.0600
     12 C12        -8.1731    2.2113   53.1938 C.ar    1  ZINC000518234532   -0.1300
     13 C13        -7.6409    3.0644   54.1423 C.ar    1  ZINC000518234532   -0.0900
     14 C14        -6.4772    3.7597   53.8719 C.ar    1  ZINC000518234532   -0.1600
     15 C15        -5.8413    3.5963   52.6532 C.ar    1  ZINC000518234532    0.1000
     16 F16        -4.7039    4.2753   52.3878 F       1  ZINC000518234532   -0.1400
     17 C17        -1.1842    2.0922   48.5788 C.ar    1  ZINC000518234532   -0.0600
     18 C18        -0.9903    3.2988   47.9336 C.ar    1  ZINC000518234532   -0.1100
     19 C19        -0.3034    3.3406   46.7293 C.ar    1  ZINC000518234532    0.0800
     20 C20         0.1913    2.1665   46.1744 C.ar    1  ZINC000518234532    0.0600
     21 C21        -0.0073    0.9583   46.8258 C.ar    1  ZINC000518234532   -0.0800
     22 C22        -0.6896    0.9236   48.0280 C.ar    1  ZINC000518234532   -0.0800
     23 Br23       -0.9577   -0.7251   48.9143 Br      1  ZINC000518234532   -0.0300
     24 O24         0.8749    2.1864   44.9976 O.3     1  ZINC000518234532   -0.3000
     25 C25         0.7314    3.3596   44.1896 C.3     1  ZINC000518234532    0.0200
     26 C26         0.8901    4.5889   45.0947 C.3     1  ZINC000518234532    0.0200
     27 O27        -0.1241    4.5363   46.1038 O.3     1  ZINC000518234532   -0.3000
     28 H28        -1.8147    2.9838   51.8256 H       1  ZINC000518234532    0.0700
     29 H29        -0.2387    2.7187   51.0419 H       1  ZINC000518234532    0.0700
     30 H30        -1.3054    4.0263   50.4758 H       1  ZINC000518234532    0.0600
     31 H31        -3.5723    2.9150   48.8560 H       1  ZINC000518234532    0.4000
     32 H32        -5.2321    3.7691   48.6398 H       1  ZINC000518234532    0.0700
     33 H33        -6.7654    4.1911   49.4395 H       1  ZINC000518234532    0.0700
     34 H34        -5.2167    4.6650   50.1778 H       1  ZINC000518234532    0.0700
     35 H35        -7.9595    1.3861   51.2331 H       1  ZINC000518234532    0.1300
     36 H36        -9.0825    1.6687   53.4058 H       1  ZINC000518234532    0.1300
     37 H37        -8.1346    3.1880   55.0949 H       1  ZINC000518234532    0.1300
     38 H38        -6.0619    4.4266   54.6129 H       1  ZINC000518234532    0.1400
     39 H39        -1.3743    4.2103   48.3673 H       1  ZINC000518234532    0.1400
     40 H40         0.3743    0.0442   46.3956 H       1  ZINC000518234532    0.1500
     41 H41         1.5004    3.3702   43.4171 H       1  ZINC000518234532    0.1300
     42 H42        -0.2554    3.3688   43.7268 H       1  ZINC000518234532    0.0800
     43 H43         1.8747    4.5765   45.5622 H       1  ZINC000518234532    0.0800
     44 H44         0.7744    5.4975   44.5040 H       1  ZINC000518234532    0.1300
@<TRIPOS>BOND
     1     1     2    1
     2     1    28    1
     3     1    29    1
     4     1    30    1
     5     2     3    1
     6     2     4    1
     7     2    17    1
     8     4     5   am
     9     4    31    1
    10     5     6    2
    11     5     7    1
    12     7     8    1
    13     7     9    1
    14     7    10    1
    15     9    32    1
    16     9    33    1
    17     9    34    1
    18    10    15   ar
    19    10    11   ar
    20    11    12   ar
    21    11    35    1
    22    12    13   ar
    23    12    36    1
    24    13    14   ar
    25    13    37    1
    26    14    15   ar
    27    14    38    1
    28    15    16    1
    29    17    22   ar
    30    17    18   ar
    31    18    19   ar
    32    18    39    1
    33    19    27    1
    34    19    20   ar
    35    20    21   ar
    36    20    24    1
    37    21    22   ar
    38    21    40    1
    39    22    23    1
    40    24    25    1
    41    25    26    1
    42    25    41    1
    43    25    42    1
    44    26    27    1
    45    26    43    1
    46    26    44    1
@<TRIPOS>SUBSTRUCTURE
     1 ZINC000518234532        1 TEMP              0 ****  ****    0 ROOT


##########                                Name:    ZINC000119180466
##########                DOCK_Rotatable_Bonds:                  10
##########                         Heavy_Atoms:                  23
##########                    Molecular_Weight:             350.405
##########                DOCK_Rotatable_Bonds:                  10
##########                       Formal_Charge:           0.0299997
##########                     HBond_Acceptors:                   8
##########                        HBond_Donors:                   3
##########                         Heavy_Atoms:                  23
##########                          Grid_Score:          -26.543192
##########                     Grid_vdw_energy:          -24.615355
##########                      Grid_es_energy:           -1.927837
##########           Internal_energy_repulsive:           17.620451

@<TRIPOS>MOLECULE
ZINC000119180466
 44 44 1 0 0
SMALL
USER_CHARGES


@<TRIPOS>ATOM
      1 C1         -8.1551    3.9461   51.2304 C.3     1  ZINC000119180466   -0.1300
      2 S2         -8.0436    2.2848   51.9504 S.3     1  ZINC000119180466   -0.2200
      3 C3         -6.6737    1.5323   51.0296 C.3     1  ZINC000119180466   -0.0700
      4 H4         -6.9206    1.5055   49.9683 H       1  ZINC000119180466    0.1100
      5 C5         -6.4414    0.1071   51.5352 C.3     1  ZINC000119180466    0.0800
      6 O6         -7.6139   -0.6768   51.3055 O.3     1  ZINC000119180466   -0.5600
      7 C7         -5.4040    2.3604   51.2372 C.3     1  ZINC000119180466    0.1900
      8 H8         -5.5699    3.3760   50.8780 H       1  ZINC000119180466    0.1000
      9 C9         -5.0566    2.3966   52.7267 C.3     1  ZINC000119180466   -0.1700
     10 N10        -4.2981    1.7535   50.4923 N.am    1  ZINC000119180466   -0.7200
     11 C11        -3.1924    2.4749   50.2209 C.2     1  ZINC000119180466    0.7100
     12 O12        -3.1122    3.6288   50.5956 O.2     1  ZINC000119180466   -0.6000
     13 N13        -2.1756    1.9171   49.5343 N.am    1  ZINC000119180466   -0.7400
     14 C14        -0.9730    2.7006   49.2407 C.3     1  ZINC000119180466    0.2000
     15 H15        -1.2475    3.7446   49.0898 H       1  ZINC000119180466    0.1000
     16 C16         0.0036    2.5945   50.4138 C.3     1  ZINC000119180466   -0.1600
     17 C17        -0.3186    2.1676   47.9923 C.ar    1  ZINC000119180466   -0.0600
     18 C18        -0.2277    2.9635   46.8658 C.ar    1  ZINC000119180466   -0.1100
     19 C19         0.3726    2.4745   45.7206 C.ar    1  ZINC000119180466   -0.0600
     20 C20         0.8824    1.1897   45.7022 C.ar    1  ZINC000119180466   -0.1800
     21 C21         1.5363    0.6564   44.4536 C.3     1  ZINC000119180466    0.5100
     22 F22         2.7909    0.1265   44.7741 F       1  ZINC000119180466   -0.1800
     23 F23         0.7343   -0.3468   43.8991 F       1  ZINC000119180466   -0.1800
     24 F24         1.6911    1.6943   43.5285 F       1  ZINC000119180466   -0.1800
     25 C25         0.7927    0.3942   46.8291 C.ar    1  ZINC000119180466   -0.0600
     26 C26         0.1958    0.8846   47.9755 C.ar    1  ZINC000119180466   -0.1100
     27 H27        -8.3615    3.8665   50.1631 H       1  ZINC000119180466    0.0800
     28 H28        -8.9594    4.4992   51.7157 H       1  ZINC000119180466    0.1000
     29 H29        -7.2116    4.4711   51.3798 H       1  ZINC000119180466    0.0800
     30 H30        -5.5990   -0.3345   51.0028 H       1  ZINC000119180466    0.0500
     31 H31        -6.2239    0.1312   52.6030 H       1  ZINC000119180466    0.0600
     32 H32        -7.8670   -0.7422   50.3744 H       1  ZINC000119180466    0.3800
     33 H33        -4.8907    1.3809   53.0860 H       1  ZINC000119180466    0.0700
     34 H34        -4.1520    2.9866   52.8745 H       1  ZINC000119180466    0.0700
     35 H35        -5.8794    2.8481   53.2810 H       1  ZINC000119180466    0.0700
     36 H36        -4.3615    0.8326   50.1946 H       1  ZINC000119180466    0.4100
     37 H37        -2.2401    0.9969   49.2344 H       1  ZINC000119180466    0.4000
     38 H38         0.8983    3.1774   50.1954 H       1  ZINC000119180466    0.0700
     39 H39        -0.4699    2.9800   51.3167 H       1  ZINC000119180466    0.0700
     40 H40         0.2781    1.5505   50.5647 H       1  ZINC000119180466    0.0600
     41 H41        -0.6259    3.9673   46.8803 H       1  ZINC000119180466    0.1300
     42 H42         0.4430    3.0961   44.8402 H       1  ZINC000119180466    0.1400
     43 H43         1.1912   -0.6095   46.8148 H       1  ZINC000119180466    0.1400
     44 H44         0.1256    0.2631   48.8560 H       1  ZINC000119180466    0.1400
@<TRIPOS>BOND
     1     1     2    1
     2     1    27    1
     3     1    28    1
     4     1    29    1
     5     2     3    1
     6     3     4    1
     7     3     5    1
     8     3     7    1
     9     5     6    1
    10     5    30    1
    11     5    31    1
    12     6    32    1
    13     7     8    1
    14     7     9    1
    15     7    10    1
    16     9    33    1
    17     9    34    1
    18     9    35    1
    19    10    11   am
    20    10    36    1
    21    11    12    2
    22    11    13   am
    23    13    14    1
    24    13    37    1
    25    14    15    1
    26    14    16    1
    27    14    17    1
    28    16    38    1
    29    16    39    1
    30    16    40    1
    31    17    26   ar
    32    17    18   ar
    33    18    19   ar
    34    18    41    1
    35    19    20   ar
    36    19    42    1
    37    20    21    1
    38    20    25   ar
    39    21    22    1
    40    21    23    1
    41    21    24    1
    42    25    26   ar
    43    25    43    1
    44    26    44    1
@<TRIPOS>SUBSTRUCTURE
     1 ZINC000119180466        1 TEMP              0 ****  ****    0 ROOT


##########                                Name:    ZINC001016082614
##########                DOCK_Rotatable_Bonds:                   6
##########                         Heavy_Atoms:                  25
##########                    Molecular_Weight:             348.402
##########                DOCK_Rotatable_Bonds:                   6
##########                       Formal_Charge:         -0.00999998
##########                     HBond_Acceptors:                   8
##########                        HBond_Donors:                   1
##########                         Heavy_Atoms:                  25
##########                          Grid_Score:          -26.536827
##########                     Grid_vdw_energy:          -25.709244
##########                      Grid_es_energy:           -0.827582
##########           Internal_energy_repulsive:           62.701962

@<TRIPOS>MOLECULE
ZINC001016082614
 49 51 1 0 0
SMALL
USER_CHARGES


@<TRIPOS>ATOM
      1 C1         -4.5568    1.4306   50.1713 C.3     1  ZINC001016082614   -0.1700
      2 C2         -3.5531    2.3020   49.4136 C.3     1  ZINC001016082614    0.1000
      3 N3         -2.2941    2.3587   50.1606 N.am    1  ZINC001016082614   -0.6100
      4 C4         -2.2212    3.0661   51.3056 C.2     1  ZINC001016082614    0.6100
      5 O5         -1.1756    3.1131   51.9261 O.2     1  ZINC001016082614   -0.5100
      6 C6         -3.4027    3.7792   51.8039 C.2     1  ZINC001016082614   -0.1100
      7 C7         -3.4790    4.5363   52.9351 C.2     1  ZINC001016082614    0.0600
      8 N8         -4.7282    5.0051   53.0202 N.2     1  ZINC001016082614   -0.4900
      9 C9         -5.4156    4.5714   51.9979 C.2     1  ZINC001016082614    0.2000
     10 O10        -4.6261    3.8177   51.2264 O.3     1  ZINC001016082614   -0.1900
     11 C11        -1.1144    1.6467   49.6631 C.3     1  ZINC001016082614    0.1600
     12 H12        -0.5147    1.3338   50.5177 H       1  ZINC001016082614    0.0800
     13 C13        -1.5801    0.4007   48.9158 C.3     1  ZINC001016082614   -0.1300
     14 C14        -0.4922   -0.6439   48.9586 C.3     1  ZINC001016082614   -0.1300
     15 C15         0.4166   -0.5121   47.7230 C.3     1  ZINC001016082614    0.1000
     16 N16         0.6956    0.8975   47.3854 N.am    1  ZINC001016082614   -0.6000
     17 C17         0.6690    1.2691   46.0902 C.2     1  ZINC001016082614    0.5000
     18 O18         0.4196    0.4516   45.2298 O.2     1  ZINC001016082614   -0.5200
     19 C19         0.9493    2.7005   45.7111 C.3     1  ZINC001016082614    0.1100
     20 H20         0.5064    3.3773   46.4417 H       1  ZINC001016082614    0.1100
     21 C21         0.3940    2.9985   44.3007 C.3     1  ZINC001016082614   -0.1200
     22 C22         1.6302    2.7294   43.4118 C.3     1  ZINC001016082614   -0.1600
     23 C23         2.8069    2.9427   44.3383 C.2     1  ZINC001016082614    0.5300
     24 O24         3.9538    3.1045   43.9786 O.2     1  ZINC001016082614   -0.5300
     25 N25         2.3964    2.9278   45.6203 N.am    1  ZINC001016082614   -0.7100
     26 C26         0.9958    1.8960   48.3869 C.3     1  ZINC001016082614    0.1300
     27 C27        -0.3171    2.5761   48.8481 C.3     1  ZINC001016082614   -0.1600
     28 H28        -5.4935    1.3883   49.6156 H       1  ZINC001016082614    0.0700
     29 H29        -4.1538    0.4238   50.2811 H       1  ZINC001016082614    0.0500
     30 H30        -4.7383    1.8588   51.1571 H       1  ZINC001016082614    0.0600
     31 H31        -3.3717    1.8737   48.4278 H       1  ZINC001016082614    0.0900
     32 H32        -3.9562    3.3087   49.3038 H       1  ZINC001016082614    0.0900
     33 H33        -2.6775    4.7228   53.6346 H       1  ZINC001016082614    0.2000
     34 H34        -6.4553    4.7906   51.8042 H       1  ZINC001016082614    0.2600
     35 H35        -2.4801    0.0080   49.3889 H       1  ZINC001016082614    0.0700
     36 H36        -1.7964    0.6581   47.8790 H       1  ZINC001016082614    0.0800
     37 H37         0.1035   -0.5086   49.8614 H       1  ZINC001016082614    0.0700
     38 H38        -0.9438   -1.6358   48.9710 H       1  ZINC001016082614    0.0800
     39 H39         1.3595   -1.0219   47.9211 H       1  ZINC001016082614    0.0700
     40 H40        -0.0704   -0.9899   46.8729 H       1  ZINC001016082614    0.0800
     41 H41        -0.4214    2.3195   44.0511 H       1  ZINC001016082614    0.1000
     42 H42         0.0735    4.0371   44.2192 H       1  ZINC001016082614    0.1000
     43 H43         1.6175    1.7045   43.0409 H       1  ZINC001016082614    0.1100
     44 H44         1.6647    3.4358   42.5825 H       1  ZINC001016082614    0.1100
     45 H45         2.9817    3.0511   46.3839 H       1  ZINC001016082614    0.4200
     46 H46         1.4795    1.4204   49.2401 H       1  ZINC001016082614    0.0800
     47 H47         1.6639    2.6458   47.9631 H       1  ZINC001016082614    0.0900
     48 H48        -0.8929    2.8793   47.9737 H       1  ZINC001016082614    0.0900
     49 H49        -0.0773    3.4577   49.4424 H       1  ZINC001016082614    0.0700
@<TRIPOS>BOND
     1     1     2    1
     2     1    28    1
     3     1    29    1
     4     1    30    1
     5     2     3    1
     6     2    31    1
     7     2    32    1
     8     3     4   am
     9     3    11    1
    10     4     5    2
    11     4     6    1
    12     6    10    1
    13     6     7    2
    14     7     8    1
    15     7    33    1
    16     8     9    2
    17     9    10    1
    18     9    34    1
    19    11    12    1
    20    11    27    1
    21    11    13    1
    22    13    14    1
    23    13    35    1
    24    13    36    1
    25    14    15    1
    26    14    37    1
    27    14    38    1
    28    15    16    1
    29    15    39    1
    30    15    40    1
    31    16    17   am
    32    16    26    1
    33    17    18    2
    34    17    19    1
    35    19    20    1
    36    19    25    1
    37    19    21    1
    38    21    22    1
    39    21    41    1
    40    21    42    1
    41    22    23    1
    42    22    43    1
    43    22    44    1
    44    23    24    2
    45    23    25   am
    46    25    45    1
    47    26    27    1
    48    26    46    1
    49    26    47    1
    50    27    48    1
    51    27    49    1
@<TRIPOS>SUBSTRUCTURE
     1 ZINC001016082614        1 TEMP              0 ****  ****    0 ROOT


##########                                Name:    ZINC000012087388
##########                DOCK_Rotatable_Bonds:                   5
##########                         Heavy_Atoms:                  29
##########                    Molecular_Weight:              418.52
##########                DOCK_Rotatable_Bonds:                   5
##########                       Formal_Charge:          -0.0499999
##########                     HBond_Acceptors:                  10
##########                        HBond_Donors:                   1
##########                         Heavy_Atoms:                  29
##########                          Grid_Score:          -26.527491
##########                     Grid_vdw_energy:          -27.541185
##########                      Grid_es_energy:            1.013694
##########           Internal_energy_repulsive:           37.861687

@<TRIPOS>MOLECULE
ZINC000012087388
 55 58 1 0 0
SMALL
USER_CHARGES


@<TRIPOS>ATOM
      1 C1          2.1252    4.6235   51.2582 C.3     1  <0>        -0.6600
      2 S2          1.5165    3.4161   52.4674 S.o2    1  <0>         2.5100
      3 O3          1.9137    2.1015   52.1027 O.2     1  <0>        -0.9400
      4 O4          1.7048    3.8977   53.7910 O.2     1  <0>        -0.9300
      5 C5         -0.2319    3.4182   52.2489 C.ar    1  <0>        -0.8400
      6 C6         -1.0728    3.8268   53.2719 C.ar    1  <0>         0.3000
      7 N7         -2.3808    3.8168   53.0750 N.ar    1  <0>        -0.5800
      8 C8         -2.8883    3.4222   51.9166 C.ar    1  <0>         0.6000
      9 N9         -4.2616    3.4242   51.7448 N.pl3   1  <0>        -0.5700
     10 C10        -4.8476    3.4338   50.3975 C.3     1  <0>         0.1200
     11 C11        -5.8342    2.2677   50.2805 C.3     1  <0>        -0.1400
     12 C12        -6.8600    2.3571   51.4126 C.3     1  <0>        -0.1200
     13 C13        -6.1444    2.2510   52.7613 C.3     1  <0>        -0.1400
     14 C14        -5.1613    3.4108   52.9063 C.3     1  <0>         0.1200
     15 N15        -2.1122    3.0259   50.9183 N.ar    1  <0>        -0.5700
     16 C16        -0.7959    3.0165   51.0479 C.ar    1  <0>         0.3200
     17 C17         0.0794    2.5645   49.9077 C.3     1  <0>        -0.0700
     18 C18        -0.3750    1.1822   49.4330 C.3     1  <0>        -0.1300
     19 C19         0.5386    0.7111   48.2971 C.3     1  <0>         0.0900
     20 N20         0.5519    1.7362   47.2448 N.am    1  <0>        -0.6100
     21 C21         0.2617    1.4141   45.9686 C.2     1  <0>         0.5900
     22 O22        -0.0145    0.2655   45.6791 O.2     1  <0>        -0.5100
     23 C23         0.2791    2.4521   44.9256 C.2     1  <0>        -0.0400
     24 C24        -0.7981    2.8989   44.1802 C.2     1  <0>        -0.1500
     25 C25        -0.2795    3.8797   43.3317 C.2     1  <0>         0.0000
     26 N26         1.0019    3.9847   43.5757 N.2     1  <0>        -0.2700
     27 N27         1.3606    3.1717   44.5031 N.pl3   1  <0>        -0.3900
     28 C28         0.8872    3.1193   47.6100 C.3     1  <0>         0.1100
     29 C29        -0.0302    3.5635   48.7535 C.3     1  <0>        -0.1200
     30 H30         1.8402    4.3079   50.2546 H       1  <0>         0.1400
     31 H31         1.6899    5.6003   51.4693 H       1  <0>         0.1300
     32 H32         3.2114    4.6879   51.3241 H       1  <0>         0.1400
     33 H33        -0.6650    4.1493   54.2186 H       1  <0>         0.1900
     34 H34        -5.3730    4.3748   50.2341 H       1  <0>         0.0700
     35 H35        -4.0578    3.3202   49.6548 H       1  <0>         0.1000
     36 H36        -6.3468    2.3199   49.3200 H       1  <0>         0.0800
     37 H37        -5.2928    1.3244   50.3537 H       1  <0>         0.0700
     38 H38        -7.3838    3.3113   51.3535 H       1  <0>         0.0700
     39 H39        -7.5779    1.5425   51.3174 H       1  <0>         0.0700
     40 H40        -6.8779    2.2913   53.5665 H       1  <0>         0.0800
     41 H41        -5.6001    1.3079   52.8111 H       1  <0>         0.0700
     42 H42        -4.5796    3.2846   53.8194 H       1  <0>         0.1000
     43 H43        -5.7099    4.3518   52.9471 H       1  <0>         0.0700
     44 H44         1.1148    2.5104   50.2440 H       1  <0>         0.1000
     45 H45        -0.3187    0.4764   50.2617 H       1  <0>         0.0800
     46 H46        -1.4022    1.2407   49.0732 H       1  <0>         0.0900
     47 H47         1.5494    0.5651   48.6779 H       1  <0>         0.0800
     48 H48         0.1607   -0.2265   47.8893 H       1  <0>         0.0900
     49 H49        -1.8220    2.5610   44.2417 H       1  <0>         0.1700
     50 H50        -0.8369    4.4497   42.6032 H       1  <0>         0.1900
     51 H51         2.2629    3.0780   44.8462 H       1  <0>         0.4400
     52 H52         1.9265    3.1697   47.9347 H       1  <0>         0.0800
     53 H53         0.7393    3.7708   46.7487 H       1  <0>         0.1000
     54 H54        -1.0607    3.5995   48.4002 H       1  <0>         0.0800
     55 H55         0.2713    4.5525   49.0986 H       1  <0>         0.0900
@<TRIPOS>BOND
     1     1     2    1
     2     1    30    1
     3     1    31    1
     4     1    32    1
     5     2     3    2
     6     2     4    2
     7     2     5    1
     8     5    16   ar
     9     5     6   ar
    10     6     7   ar
    11     6    33    1
    12     7     8   ar
    13     8     9    1
    14     8    15   ar
    15     9    14    1
    16     9    10    1
    17    10    11    1
    18    10    34    1
    19    10    35    1
    20    11    12    1
    21    11    36    1
    22    11    37    1
    23    12    13    1
    24    12    38    1
    25    12    39    1
    26    13    14    1
    27    13    40    1
    28    13    41    1
    29    14    42    1
    30    14    43    1
    31    15    16   ar
    32    16    17    1
    33    17    29    1
    34    17    18    1
    35    17    44    1
    36    18    19    1
    37    18    45    1
    38    18    46    1
    39    19    20    1
    40    19    47    1
    41    19    48    1
    42    20    21   am
    43    20    28    1
    44    21    22    2
    45    21    23    1
    46    23    27    1
    47    23    24    2
    48    24    25    1
    49    24    49    1
    50    25    26    2
    51    25    50    1
    52    26    27    1
    53    27    51    1
    54    28    29    1
    55    28    52    1
    56    28    53    1
    57    29    54    1
    58    29    55    1
@<TRIPOS>SUBSTRUCTURE
     1 <0>         1 TEMP              0 ****  ****    0 ROOT


##########                                Name:    ZINC000540473851
##########                DOCK_Rotatable_Bonds:                   5
##########                         Heavy_Atoms:                  29
##########                    Molecular_Weight:             411.503
##########                DOCK_Rotatable_Bonds:                   5
##########                       Formal_Charge:           0.0200001
##########                     HBond_Acceptors:                   8
##########                        HBond_Donors:                   0
##########                         Heavy_Atoms:                  29
##########                          Grid_Score:          -26.518181
##########                     Grid_vdw_energy:          -26.362404
##########                      Grid_es_energy:           -0.155777
##########           Internal_energy_repulsive:           27.248678

@<TRIPOS>MOLECULE
ZINC000540473851
 51 54 1 0 0
SMALL
USER_CHARGES


@<TRIPOS>ATOM
      1 C1        -13.0542    3.2331   52.8367 C.3     1  ZINC000540473851   -0.0800
      2 C2        -12.2064    2.0271   52.5238 C.2     1  ZINC000540473851    0.1500
      3 C3        -12.7150    0.7578   52.4466 C.2     1  ZINC000540473851   -0.3100
      4 C4        -14.1174    0.3734   52.6478 C.2     1  ZINC000540473851    0.6000
      5 O5        -14.8469    0.2093   51.6879 O.2     1  ZINC000540473851   -0.5100
      6 N6        -14.5969    0.2025   53.8957 N.am    1  ZINC000540473851   -0.6100
      7 C7        -15.9970   -0.1883   54.1195 C.3     1  ZINC000540473851    0.1000
      8 C8        -16.0202   -1.3989   55.0588 C.3     1  ZINC000540473851    0.0400
      9 N9        -15.2608   -1.0846   56.2764 N.3     1  ZINC000540473851   -0.5300
     10 C10       -15.4016   -2.1526   57.2750 C.3     1  ZINC000540473851    0.1200
     11 H11       -14.8841   -3.0465   56.9265 H       1  ZINC000540473851    0.0500
     12 C12       -16.8848   -2.4686   57.4783 C.3     1  ZINC000540473851   -0.1400
     13 C13       -14.8006   -1.7014   58.5813 C.ar    1  ZINC000540473851   -0.0500
     14 C14       -14.2862   -2.6330   59.4634 C.ar    1  ZINC000540473851   -0.1000
     15 C15       -13.7345   -2.2206   60.6622 C.ar    1  ZINC000540473851   -0.0900
     16 C16       -13.6968   -0.8763   60.9798 C.ar    1  ZINC000540473851   -0.1500
     17 C17       -14.2114    0.0580   60.0966 C.ar    1  ZINC000540473851    0.1000
     18 F18       -14.1750    1.3725   60.4060 F       1  ZINC000540473851   -0.1400
     19 C19       -14.7588   -0.3557   58.8942 C.ar    1  ZINC000540473851   -0.1500
     20 C20       -13.8461   -0.8320   55.9717 C.3     1  ZINC000540473851    0.0400
     21 C21       -13.7321    0.3959   55.0696 C.3     1  ZINC000540473851    0.1200
     22 S22       -11.3840   -0.3310   52.0622 S.3     1  ZINC000540473851    0.2800
     23 C23       -10.2961    0.9872   52.0414 C.2     1  ZINC000540473851    0.0800
     24 C24        -8.8465    0.8799   51.7655 C.ar    1  ZINC000540473851    0.3800
     25 N25        -8.2787   -0.3191   51.7413 N.ar    1  ZINC000540473851   -0.5100
     26 C26        -6.9866   -0.4496   51.4980 C.ar    1  ZINC000540473851    0.1600
     27 C27        -6.2232    0.6857   51.2663 C.ar    1  ZINC000540473851   -0.2100
     28 C28        -6.8487    1.9238   51.2989 C.ar    1  ZINC000540473851    0.1500
     29 N29        -8.1459    1.9845   51.5428 N.ar    1  ZINC000540473851   -0.4700
     30 N30       -10.9229    2.1003   52.2965 N.2     1  ZINC000540473851   -0.4300
     31 H31       -13.4432    3.6544   51.9096 H       1  ZINC000540473851    0.0900
     32 H32       -13.8846    2.9371   53.4777 H       1  ZINC000540473851    0.0800
     33 H33       -12.4480    3.9802   53.3491 H       1  ZINC000540473851    0.0800
     34 H34       -16.5398    0.6396   54.5758 H       1  ZINC000540473851    0.0900
     35 H35       -16.4596   -0.4535   53.1689 H       1  ZINC000540473851    0.0900
     36 H36       -17.0511   -1.6340   55.3237 H       1  ZINC000540473851    0.1000
     37 H37       -15.5682   -2.2557   54.5592 H       1  ZINC000540473851    0.0400
     38 H38       -17.4022   -1.5748   57.8267 H       1  ZINC000540473851    0.0700
     39 H39       -17.3195   -2.7950   56.5334 H       1  ZINC000540473851    0.0600
     40 H40       -16.9893   -3.2612   58.2192 H       1  ZINC000540473851    0.0600
     41 H41       -14.3156   -3.6840   59.2162 H       1  ZINC000540473851    0.1400
     42 H42       -13.3332   -2.9494   61.3509 H       1  ZINC000540473851    0.1300
     43 H43       -13.2664   -0.5544   61.9166 H       1  ZINC000540473851    0.1300
     44 H44       -15.1601    0.3719   58.2045 H       1  ZINC000540473851    0.1300
     45 H45       -13.3002   -0.6559   56.8986 H       1  ZINC000540473851    0.1000
     46 H46       -13.4243   -1.6967   55.4593 H       1  ZINC000540473851    0.0400
     47 H47       -12.6980    0.5194   54.7482 H       1  ZINC000540473851    0.1000
     48 H48       -14.0575    1.2820   55.6146 H       1  ZINC000540473851    0.0800
     49 H49        -6.5299   -1.4282   51.4799 H       1  ZINC000540473851    0.1800
     50 H50        -5.1650    0.6074   51.0653 H       1  ZINC000540473851    0.1600
     51 H51        -6.2829    2.8267   51.1228 H       1  ZINC000540473851    0.1800
@<TRIPOS>BOND
     1     1     2    1
     2     1    31    1
     3     1    32    1
     4     1    33    1
     5     2    30    1
     6     2     3    2
     7     3     4    1
     8     3    22    1
     9     4     5    2
    10     4     6   am
    11     6    21    1
    12     6     7    1
    13     7     8    1
    14     7    34    1
    15     7    35    1
    16     8     9    1
    17     8    36    1
    18     8    37    1
    19     9    10    1
    20     9    20    1
    21    10    11    1
    22    10    12    1
    23    10    13    1
    24    12    38    1
    25    12    39    1
    26    12    40    1
    27    13    19   ar
    28    13    14   ar
    29    14    15   ar
    30    14    41    1
    31    15    16   ar
    32    15    42    1
    33    16    17   ar
    34    16    43    1
    35    17    18    1
    36    17    19   ar
    37    19    44    1
    38    20    21    1
    39    20    45    1
    40    20    46    1
    41    21    47    1
    42    21    48    1
    43    22    23    1
    44    23    24    1
    45    23    30    2
    46    24    29   ar
    47    24    25   ar
    48    25    26   ar
    49    26    27   ar
    50    26    49    1
    51    27    28   ar
    52    27    50    1
    53    28    29   ar
    54    28    51    1
@<TRIPOS>SUBSTRUCTURE
     1 ZINC000540473851        1 TEMP              0 ****  ****    0 ROOT


##########                                Name:    ZINC000518937710
##########                DOCK_Rotatable_Bonds:                   6
##########                         Heavy_Atoms:                  25
##########                    Molecular_Weight:             397.421
##########                DOCK_Rotatable_Bonds:                   6
##########                       Formal_Charge:          -0.0199997
##########                     HBond_Acceptors:                  11
##########                        HBond_Donors:                   0
##########                         Heavy_Atoms:                  25
##########                          Grid_Score:          -26.513441
##########                     Grid_vdw_energy:          -27.566856
##########                      Grid_es_energy:            1.053415
##########           Internal_energy_repulsive:           27.581980

@<TRIPOS>MOLECULE
ZINC000518937710
 42 44 1 0 0
SMALL
USER_CHARGES


@<TRIPOS>ATOM
      1 C1          2.9662    0.9649   47.3003 C.3     1  ZINC000518937710   -0.1900
      2 C2          1.7398    1.8747   47.3951 C.3     1  ZINC000518937710    0.1700
      3 H3          1.7370    2.3815   48.3601 H       1  ZINC000518937710    0.1100
      4 C4          1.7878    2.9140   46.2733 C.3     1  ZINC000518937710   -0.6600
      5 S5          0.7971    4.3586   46.7445 S.o2    1  ZINC000518937710    2.4000
      6 C6          1.8545    5.1485   47.9887 C.3     1  ZINC000518937710   -0.6600
      7 O7          0.6954    5.2237   45.6216 O.2     1  ZINC000518937710   -0.9200
      8 O8         -0.3900    3.9056   47.3809 O.2     1  ZINC000518937710   -0.9300
      9 N9          0.5229    1.0696   47.2631 N.am    1  ZINC000518937710   -0.9600
     10 C10        -0.1482    0.9638   45.9652 C.3     1  ZINC000518937710    0.0800
     11 C11         0.5975    0.2420   44.8410 C.3     1  ZINC000518937710   -0.1800
     12 C12        -0.6019   -0.4265   45.5158 C.3     1  ZINC000518937710   -0.1800
     13 S13        -0.0940    0.2792   48.5811 S.o2    1  ZINC000518937710    2.6900
     14 O14        -1.3363   -0.2757   48.1711 O.2     1  ZINC000518937710   -0.9400
     15 O15         0.9674   -0.5009   49.1143 O.2     1  ZINC000518937710   -0.9400
     16 C16        -0.4707    1.5014   49.7931 C.ar    1  ZINC000518937710   -0.6400
     17 C17         0.5018    1.9120   50.6857 C.ar    1  ZINC000518937710   -0.0300
     18 C18         0.2098    2.8708   51.6380 C.ar    1  ZINC000518937710   -0.1300
     19 C19        -1.0557    3.4234   51.7012 C.ar    1  ZINC000518937710   -0.0300
     20 C20        -2.0352    3.0168   50.8099 C.ar    1  ZINC000518937710    0.0200
     21 C21        -1.7397    2.0546   49.8473 C.ar    1  ZINC000518937710    0.1900
     22 O22        -2.8587    1.8279   49.0992 O.3     1  ZINC000518937710   -0.2800
     23 C23        -3.9517    2.3588   49.8717 C.3     1  ZINC000518937710    0.5700
     24 F24        -4.9310    2.8988   49.0312 F       1  ZINC000518937710   -0.1200
     25 F25        -4.5016    1.3672   50.6913 F       1  ZINC000518937710   -0.1400
     26 O26        -3.3381    3.3961   50.6619 O.3     1  ZINC000518937710   -0.2900
     27 H27         2.9495    0.4305   46.3505 H       1  ZINC000518937710    0.1000
     28 H28         3.8718    1.5683   47.3620 H       1  ZINC000518937710    0.0800
     29 H29         2.9508    0.2477   48.1210 H       1  ZINC000518937710    0.0700
     30 H30         2.8203    3.2205   46.1059 H       1  ZINC000518937710    0.1600
     31 H31         1.3848    2.4798   45.3583 H       1  ZINC000518937710    0.1400
     32 H32         2.7752    5.4926   47.5176 H       1  ZINC000518937710    0.1300
     33 H33         1.3298    5.9988   48.4246 H       1  ZINC000518937710    0.1300
     34 H34         2.0939    4.4291   48.7717 H       1  ZINC000518937710    0.1300
     35 H35        -0.7758    1.8115   45.6900 H       1  ZINC000518937710    0.1500
     36 H36         0.4607    0.6148   43.8259 H       1  ZINC000518937710    0.1100
     37 H37         1.5875   -0.1542   45.0672 H       1  ZINC000518937710    0.1000
     38 H38        -0.4012   -1.2625   46.1858 H       1  ZINC000518937710    0.1000
     39 H39        -1.5279   -0.4935   44.9445 H       1  ZINC000518937710    0.1000
     40 H40         1.4917    1.4825   50.6393 H       1  ZINC000518937710    0.1600
     41 H41         0.9720    3.1884   52.3341 H       1  ZINC000518937710    0.1600
     42 H42        -1.2809    4.1723   52.4462 H       1  ZINC000518937710    0.1500
@<TRIPOS>BOND
     1     1     2    1
     2     1    27    1
     3     1    28    1
     4     1    29    1
     5     2     3    1
     6     2     4    1
     7     2     9    1
     8     4     5    1
     9     4    30    1
    10     4    31    1
    11     5     6    1
    12     5     7    2
    13     5     8    2
    14     6    32    1
    15     6    33    1
    16     6    34    1
    17     9    10    1
    18     9    13   am
    19    10    12    1
    20    10    11    1
    21    10    35    1
    22    11    12    1
    23    11    36    1
    24    11    37    1
    25    12    38    1
    26    12    39    1
    27    13    14    2
    28    13    15    2
    29    13    16    1
    30    16    21   ar
    31    16    17   ar
    32    17    18   ar
    33    17    40    1
    34    18    19   ar
    35    18    41    1
    36    19    20   ar
    37    19    42    1
    38    20    26    1
    39    20    21   ar
    40    21    22    1
    41    22    23    1
    42    23    24    1
    43    23    25    1
    44    23    26    1
@<TRIPOS>SUBSTRUCTURE
     1 ZINC000518937710        1 TEMP              0 ****  ****    0 ROOT


##########                                Name:    ZINC000441887161
##########                DOCK_Rotatable_Bonds:                   6
##########                         Heavy_Atoms:                  27
##########                    Molecular_Weight:             383.514
##########                DOCK_Rotatable_Bonds:                   6
##########                       Formal_Charge:          -0.0300002
##########                     HBond_Acceptors:                   6
##########                        HBond_Donors:                   1
##########                         Heavy_Atoms:                  27
##########                          Grid_Score:          -26.497755
##########                     Grid_vdw_energy:          -26.181810
##########                      Grid_es_energy:           -0.315944
##########           Internal_energy_repulsive:           20.750877

@<TRIPOS>MOLECULE
ZINC000441887161
 52 54 1 0 0
SMALL
USER_CHARGES


@<TRIPOS>ATOM
      1 C1          0.0234   -1.0462   49.4583 C.3     1  ZINC000441887161   -0.1200
      2 C2          0.5877   -0.4306   48.2039 C.ar    1  ZINC000441887161   -0.0700
      3 C3         -0.1459   -0.4529   47.0327 C.ar    1  ZINC000441887161   -0.1200
      4 C4          0.3718    0.1121   45.8819 C.ar    1  ZINC000441887161   -0.0900
      5 C5          1.6226    0.6994   45.9026 C.ar    1  ZINC000441887161   -0.1100
      6 C6          2.1871    1.3147   44.6482 C.3     1  ZINC000441887161    0.1900
      7 H7          2.9488    2.0478   44.9140 H       1  ZINC000441887161    0.1000
      8 C8          2.8129    0.2208   43.7806 C.3     1  ZINC000441887161    0.1000
      9 N9          3.3267    0.8131   42.5431 N.pl3   1  ZINC000441887161   -0.4600
     10 C10         3.8084    2.0853   42.3904 C.2     1  ZINC000441887161   -0.0500
     11 C11         4.1737    2.2114   41.1004 C.2     1  ZINC000441887161   -0.0200
     12 N12         3.9218    1.0481   40.4822 N.2     1  ZINC000441887161   -0.4900
     13 C13         3.4191    0.2041   41.3414 C.2     1  ZINC000441887161    0.1800
     14 N14         1.1131    1.9750   43.9022 N.am    1  ZINC000441887161   -1.1100
     15 S15         0.9269    3.6178   43.9982 S.o2    1  ZINC000441887161    2.6900
     16 O16         2.1876    4.1844   43.6683 O.2     1  ZINC000441887161   -0.9600
     17 O17        -0.2711    3.9273   43.2995 O.2     1  ZINC000441887161   -0.9500
     18 C18         0.6319    4.0112   45.6901 C.ar    1  ZINC000441887161   -0.6800
     19 C19         1.3472    5.0252   46.2988 C.ar    1  ZINC000441887161   -0.0300
     20 C20         1.1159    5.3339   47.6264 C.ar    1  ZINC000441887161   -0.1300
     21 C21         0.1688    4.6289   48.3449 C.ar    1  ZINC000441887161   -0.0200
     22 C22        -0.0831    4.9650   49.7922 C.3     1  ZINC000441887161   -0.1300
     23 C23        -0.5477    3.6154   47.7357 C.ar    1  ZINC000441887161   -0.1000
     24 C24        -1.5807    2.8469   48.5190 C.3     1  ZINC000441887161   -0.1200
     25 C25        -0.3191    3.3094   46.4075 C.ar    1  ZINC000441887161   -0.0100
     26 C26         2.3559    0.7230   47.0745 C.ar    1  ZINC000441887161   -0.0700
     27 C27         3.7196    1.3638   47.0974 C.3     1  ZINC000441887161   -0.1300
     28 C28         1.8368    0.1616   48.2259 C.ar    1  ZINC000441887161   -0.1200
     29 H29        -0.5435   -0.2952   50.0085 H       1  ZINC000441887161    0.0700
     30 H30        -0.6333   -1.8747   49.1928 H       1  ZINC000441887161    0.0700
     31 H31         0.8389   -1.4142   50.0810 H       1  ZINC000441887161    0.0700
     32 H32        -1.1235   -0.9118   47.0165 H       1  ZINC000441887161    0.1200
     33 H33        -0.2013    0.0939   44.9666 H       1  ZINC000441887161    0.1200
     34 H34         3.6312   -0.2509   44.3247 H       1  ZINC000441887161    0.1100
     35 H35         2.0581   -0.5276   43.5391 H       1  ZINC000441887161    0.1000
     36 H36         3.8813    2.8425   43.1572 H       1  ZINC000441887161    0.1700
     37 H37         4.5954    3.0945   40.6437 H       1  ZINC000441887161    0.1600
     38 H38         3.1202   -0.8110   41.1255 H       1  ZINC000441887161    0.2000
     39 H39         0.5110    1.4500   43.3520 H       1  ZINC000441887161    0.4200
     40 H40         2.0873    5.5761   45.7373 H       1  ZINC000441887161    0.1300
     41 H41         1.6754    6.1257   48.1021 H       1  ZINC000441887161    0.1300
     42 H42        -0.8629    5.7237   49.8585 H       1  ZINC000441887161    0.0800
     43 H43        -0.4027    4.0682   50.3232 H       1  ZINC000441887161    0.0800
     44 H44         0.8339    5.3460   50.2416 H       1  ZINC000441887161    0.0700
     45 H45        -2.5485    3.3397   48.4253 H       1  ZINC000441887161    0.0800
     46 H46        -1.6508    1.8315   48.1294 H       1  ZINC000441887161    0.0700
     47 H47        -1.2900    2.8140   49.5690 H       1  ZINC000441887161    0.0700
     48 H48        -0.8789    2.5177   45.9316 H       1  ZINC000441887161    0.1400
     49 H49         3.6210    2.4190   47.3523 H       1  ZINC000441887161    0.0800
     50 H50         4.3423    0.8670   47.8414 H       1  ZINC000441887161    0.0700
     51 H51         4.1821    1.2691   46.1149 H       1  ZINC000441887161    0.0600
     52 H52         2.4096    0.1800   49.1414 H       1  ZINC000441887161    0.1300
@<TRIPOS>BOND
     1     1     2    1
     2     1    29    1
     3     1    30    1
     4     1    31    1
     5     2    28   ar
     6     2     3   ar
     7     3     4   ar
     8     3    32    1
     9     4     5   ar
    10     4    33    1
    11     5     6    1
    12     5    26   ar
    13     6     7    1
    14     6     8    1
    15     6    14    1
    16     8     9    1
    17     8    34    1
    18     8    35    1
    19     9    13    1
    20     9    10    1
    21    10    11    2
    22    10    36    1
    23    11    12    1
    24    11    37    1
    25    12    13    2
    26    13    38    1
    27    14    15   am
    28    14    39    1
    29    15    16    2
    30    15    17    2
    31    15    18    1
    32    18    25   ar
    33    18    19   ar
    34    19    20   ar
    35    19    40    1
    36    20    21   ar
    37    20    41    1
    38    21    22    1
    39    21    23   ar
    40    22    42    1
    41    22    43    1
    42    22    44    1
    43    23    24    1
    44    23    25   ar
    45    24    45    1
    46    24    46    1
    47    24    47    1
    48    25    48    1
    49    26    27    1
    50    26    28   ar
    51    27    49    1
    52    27    50    1
    53    27    51    1
    54    28    52    1
@<TRIPOS>SUBSTRUCTURE
     1 ZINC000441887161        1 TEMP              0 ****  ****    0 ROOT


##########                                Name:    ZINC000463741321
##########                DOCK_Rotatable_Bonds:                   7
##########                         Heavy_Atoms:                  26
##########                    Molecular_Weight:             354.467
##########                DOCK_Rotatable_Bonds:                   7
##########                       Formal_Charge:         -6.4075e-07
##########                     HBond_Acceptors:                   4
##########                        HBond_Donors:                   1
##########                         Heavy_Atoms:                  26
##########                          Grid_Score:          -26.461199
##########                     Grid_vdw_energy:          -25.696590
##########                      Grid_es_energy:           -0.764608
##########           Internal_energy_repulsive:           19.392769

@<TRIPOS>MOLECULE
ZINC000463741321
 53 55 1 0 0
SMALL
USER_CHARGES


@<TRIPOS>ATOM
      1 C1         -6.6352    5.7558   53.4189 C.3     1  ZINC000463741321   -0.1500
      2 C2         -5.4787    4.8034   53.7298 C.3     1  ZINC000463741321   -0.1100
      3 H3         -5.0975    5.0091   54.7300 H       1  ZINC000463741321    0.1000
      4 C4         -5.9757    3.3580   53.6605 C.3     1  ZINC000463741321   -0.0900
      5 C5         -6.1535    2.9494   52.1969 C.3     1  ZINC000463741321   -0.0800
      6 C6         -7.0237    1.7215   52.1204 C.ar    1  ZINC000463741321   -0.1200
      7 C7         -6.4778    0.5101   51.7411 C.ar    1  ZINC000463741321   -0.0900
      8 C8         -7.2759   -0.6168   51.6707 C.ar    1  ZINC000463741321   -0.1300
      9 C9         -8.6206   -0.5329   51.9793 C.ar    1  ZINC000463741321   -0.1000
     10 C10        -9.1690    0.6778   52.3586 C.ar    1  ZINC000463741321   -0.1500
     11 C11        -8.3695    1.8054   52.4357 C.ar    1  ZINC000463741321    0.1000
     12 F12        -8.9044    2.9893   52.8063 F       1  ZINC000463741321   -0.1400
     13 C13        -4.3772    5.0048   52.7213 C.2     1  ZINC000463741321    0.5200
     14 O14        -4.5764    5.6771   51.7317 O.2     1  ZINC000463741321   -0.5300
     15 N15        -3.1705    4.4378   52.9189 N.am    1  ZINC000463741321   -0.7300
     16 C16        -2.1002    4.6322   51.9376 C.3     1  ZINC000463741321    0.1500
     17 H17        -2.2575    5.5723   51.4090 H       1  ZINC000463741321    0.1000
     18 C18        -0.7486    4.6697   52.6561 C.3     1  ZINC000463741321   -0.1300
     19 C19         0.3683    4.8127   51.6184 C.3     1  ZINC000463741321   -0.1200
     20 C20         0.2885    3.6498   50.6267 C.3     1  ZINC000463741321    0.0600
     21 N21        -1.0226    3.6581   49.9653 N.3     1  ZINC000463741321   -0.4800
     22 C22        -1.0819    2.6907   48.9595 C.ar    1  ZINC000463741321    0.1100
     23 C23        -1.5316    1.4093   49.2518 C.ar    1  ZINC000463741321   -0.1700
     24 C24        -1.5895    0.4553   48.2550 C.ar    1  ZINC000463741321   -0.0900
     25 C25        -1.2000    0.7744   46.9670 C.ar    1  ZINC000463741321   -0.1500
     26 C26        -0.7518    2.0490   46.6726 C.ar    1  ZINC000463741321   -0.0900
     27 C27        -0.6968    3.0094   47.6635 C.ar    1  ZINC000463741321   -0.1400
     28 C28        -2.1091    3.4751   50.9361 C.3     1  ZINC000463741321    0.0500
     29 H29        -7.0163    5.5502   52.4186 H       1  ZINC000463741321    0.0600
     30 H30        -7.4318    5.6102   54.1484 H       1  ZINC000463741321    0.0700
     31 H31        -6.2811    6.7855   53.4683 H       1  ZINC000463741321    0.0600
     32 H32        -5.2476    2.7004   54.1355 H       1  ZINC000463741321    0.0700
     33 H33        -6.9310    3.2771   54.1792 H       1  ZINC000463741321    0.0700
     34 H34        -6.6253    3.7638   51.6471 H       1  ZINC000463741321    0.0800
     35 H35        -5.1792    2.7322   51.7593 H       1  ZINC000463741321    0.0800
     36 H36        -5.4274    0.4435   51.4990 H       1  ZINC000463741321    0.1300
     37 H37        -6.8483   -1.5631   51.3741 H       1  ZINC000463741321    0.1300
     38 H38        -9.2432   -1.4137   51.9237 H       1  ZINC000463741321    0.1300
     39 H39       -10.2199    0.7432   52.5990 H       1  ZINC000463741321    0.1400
     40 H40        -3.0108    3.9012   53.7110 H       1  ZINC000463741321    0.4000
     41 H41        -0.7224    5.5189   53.3388 H       1  ZINC000463741321    0.0700
     42 H42        -0.6084    3.7456   53.2170 H       1  ZINC000463741321    0.0600
     43 H43         0.2501    5.7554   51.0842 H       1  ZINC000463741321    0.0800
     44 H44         1.3357    4.7970   52.1205 H       1  ZINC000463741321    0.0800
     45 H45         1.0736    3.7565   49.8781 H       1  ZINC000463741321    0.0900
     46 H46         0.4205    2.7082   51.1596 H       1  ZINC000463741321    0.0500
     47 H47        -1.8353    1.1593   50.2577 H       1  ZINC000463741321    0.1200
     48 H48        -1.9390   -0.5411   48.4815 H       1  ZINC000463741321    0.1200
     49 H49        -1.2455    0.0262   46.1895 H       1  ZINC000463741321    0.1200
     50 H50        -0.4483    2.2949   45.6656 H       1  ZINC000463741321    0.1200
     51 H51        -0.3470    4.0048   47.4328 H       1  ZINC000463741321    0.1300
     52 H52        -1.9663    2.5344   51.4679 H       1  ZINC000463741321    0.0500
     53 H53        -3.0647    3.4546   50.4120 H       1  ZINC000463741321    0.0900
@<TRIPOS>BOND
     1     1     2    1
     2     1    29    1
     3     1    30    1
     4     1    31    1
     5     2     3    1
     6     2     4    1
     7     2    13    1
     8     4     5    1
     9     4    32    1
    10     4    33    1
    11     5     6    1
    12     5    34    1
    13     5    35    1
    14     6    11   ar
    15     6     7   ar
    16     7     8   ar
    17     7    36    1
    18     8     9   ar
    19     8    37    1
    20     9    10   ar
    21     9    38    1
    22    10    11   ar
    23    10    39    1
    24    11    12    1
    25    13    14    2
    26    13    15   am
    27    15    16    1
    28    15    40    1
    29    16    17    1
    30    16    28    1
    31    16    18    1
    32    18    19    1
    33    18    41    1
    34    18    42    1
    35    19    20    1
    36    19    43    1
    37    19    44    1
    38    20    21    1
    39    20    45    1
    40    20    46    1
    41    21    22    1
    42    21    28    1
    43    22    27   ar
    44    22    23   ar
    45    23    24   ar
    46    23    47    1
    47    24    25   ar
    48    24    48    1
    49    25    26   ar
    50    25    49    1
    51    26    27   ar
    52    26    50    1
    53    27    51    1
    54    28    52    1
    55    28    53    1
@<TRIPOS>SUBSTRUCTURE
     1 ZINC000463741321        1 TEMP              0 ****  ****    0 ROOT


##########                                Name:    ZINC001176298561
##########                DOCK_Rotatable_Bonds:                   6
##########                         Heavy_Atoms:                  23
##########                    Molecular_Weight:             337.781
##########                DOCK_Rotatable_Bonds:                   6
##########                       Formal_Charge:          -0.0100003
##########                     HBond_Acceptors:                   7
##########                        HBond_Donors:                   2
##########                         Heavy_Atoms:                  23
##########                          Grid_Score:          -26.414486
##########                     Grid_vdw_energy:          -25.452772
##########                      Grid_es_energy:           -0.961715
##########           Internal_energy_repulsive:           13.191221

@<TRIPOS>MOLECULE
ZINC001176298561
 40 41 1 0 0
SMALL
USER_CHARGES


@<TRIPOS>ATOM
      1 C1         -7.7718    2.6839   52.8032 C.3     1  ZINC001176298561   -0.1700
      2 C2         -7.3082    2.4731   51.3604 C.3     1  ZINC001176298561    0.1100
      3 N3         -5.9628    3.0284   51.1939 N.am    1  ZINC001176298561   -0.6100
      4 C4         -5.7735    4.2826   50.4609 C.3     1  ZINC001176298561    0.0900
      5 C5         -6.0989    4.0632   48.9820 C.3     1  ZINC001176298561   -0.1800
      6 C6         -4.8992    2.3854   51.7151 C.2     1  ZINC001176298561    0.5600
      7 O7         -5.0562    1.3448   52.3234 O.2     1  ZINC001176298561   -0.5300
      8 C8         -3.5412    2.9459   51.5470 C.ar    1  ZINC001176298561   -0.0600
      9 C9         -2.9160    3.5966   52.6117 C.ar    1  ZINC001176298561   -0.1900
     10 C10        -1.6461    4.1199   52.4520 C.ar    1  ZINC001176298561    0.1400
     11 F11        -1.0421    4.7492   53.4837 F       1  ZINC001176298561   -0.1300
     12 C12        -0.9919    4.0002   51.2382 C.ar    1  ZINC001176298561   -0.1800
     13 C13        -1.6077    3.3535   50.1729 C.ar    1  ZINC001176298561    0.2400
     14 N14        -0.9434    3.2347   48.9499 N.pl3   1  ZINC001176298561   -0.6700
     15 C15        -0.5729    1.9710   48.4744 C.2     1  ZINC001176298561    0.0400
     16 C16        -0.9674    1.5561   47.2317 C.2     1  ZINC001176298561   -0.0300
     17 C17        -0.5819    0.2853   46.7792 C.2     1  ZINC001176298561   -0.1300
     18 Cl18       -1.0715   -0.2607   45.2057 Cl      1  ZINC001176298561   -0.0400
     19 C19         0.1717   -0.5148   47.5686 C.2     1  ZINC001176298561    0.1400
     20 N20         0.5647   -0.1034   48.8048 N.am    1  ZINC001176298561   -0.6000
     21 C21         0.2172    1.1119   49.2694 C.2     1  ZINC001176298561    0.5100
     22 O22         0.5776    1.4671   50.3803 O.2     1  ZINC001176298561   -0.5200
     23 C23        -2.8790    2.8206   50.3259 C.ar    1  ZINC001176298561   -0.1300
     24 H24        -8.7728    2.2706   52.9273 H       1  ZINC001176298561    0.0700
     25 H25        -7.0843    2.1805   53.4830 H       1  ZINC001176298561    0.0600
     26 H26        -7.7886    3.7504   53.0274 H       1  ZINC001176298561    0.0600
     27 H27        -7.2913    1.4065   51.1364 H       1  ZINC001176298561    0.0800
     28 H28        -7.9958    2.9764   50.6807 H       1  ZINC001176298561    0.0900
     29 H29        -6.4361    5.0457   50.8693 H       1  ZINC001176298561    0.0900
     30 H30        -4.7383    4.6091   50.5607 H       1  ZINC001176298561    0.0800
     31 H31        -6.9720    3.4167   48.8942 H       1  ZINC001176298561    0.0700
     32 H32        -6.3084    5.0230   48.5098 H       1  ZINC001176298561    0.0700
     33 H33        -5.2479    3.5937   48.4886 H       1  ZINC001176298561    0.0600
     34 H34        -3.4241    3.6919   53.5599 H       1  ZINC001176298561    0.1500
     35 H35        -0.0002    4.4109   51.1183 H       1  ZINC001176298561    0.1300
     36 H36        -0.7388    4.0277   48.4301 H       1  ZINC001176298561    0.4200
     37 H37        -1.5687    2.1993   46.6064 H       1  ZINC001176298561    0.1500
     38 H38         0.4645   -1.4918   47.2134 H       1  ZINC001176298561    0.1800
     39 H39         1.1044   -0.6912   49.3564 H       1  ZINC001176298561    0.4300
     40 H40        -3.3586    2.3179   49.4991 H       1  ZINC001176298561    0.1400
@<TRIPOS>BOND
     1     1     2    1
     2     1    24    1
     3     1    25    1
     4     1    26    1
     5     2     3    1
     6     2    27    1
     7     2    28    1
     8     3     4    1
     9     3     6   am
    10     4     5    1
    11     4    29    1
    12     4    30    1
    13     5    31    1
    14     5    32    1
    15     5    33    1
    16     6     7    2
    17     6     8    1
    18     8    23   ar
    19     8     9   ar
    20     9    10   ar
    21     9    34    1
    22    10    11    1
    23    10    12   ar
    24    12    13   ar
    25    12    35    1
    26    13    14    1
    27    13    23   ar
    28    14    15    1
    29    14    36    1
    30    15    21    1
    31    15    16    2
    32    16    17    1
    33    16    37    1
    34    17    18    1
    35    17    19    2
    36    19    20    1
    37    19    38    1
    38    20    21   am
    39    20    39    1
    40    21    22    2
    41    23    40    1
@<TRIPOS>SUBSTRUCTURE
     1 ZINC001176298561        1 TEMP              0 ****  ****    0 ROOT


##########                                Name:    ZINC000416583757
##########                DOCK_Rotatable_Bonds:                   7
##########                         Heavy_Atoms:                  20
##########                    Molecular_Weight:             380.693
##########                DOCK_Rotatable_Bonds:                   7
##########                       Formal_Charge:         1.04308e-07
##########                     HBond_Acceptors:                   7
##########                        HBond_Donors:                   1
##########                         Heavy_Atoms:                  20
##########                          Grid_Score:          -26.410477
##########                     Grid_vdw_energy:          -24.450703
##########                      Grid_es_energy:           -1.959775
##########           Internal_energy_repulsive:            7.857289

@<TRIPOS>MOLECULE
ZINC000416583757
 35 35 1 0 0
SMALL
USER_CHARGES


@<TRIPOS>ATOM
      1 C1        -16.1147   -2.4788   56.3172 C.3     1  ZINC000416583757   -0.1500
      2 C2        -14.9596   -1.9776   57.1861 C.3     1  ZINC000416583757   -0.0200
      3 H3        -14.1891   -1.5416   56.5501 H       1  ZINC000416583757    0.1200
      4 C4        -15.4574   -0.9574   58.1233 C.1     1  ZINC000416583757    0.2100
      5 N5        -15.8415   -0.1701   58.8465 N.1     1  ZINC000416583757   -0.4200
      6 C6        -14.3683   -3.1484   57.9737 C.3     1  ZINC000416583757    0.1300
      7 N7        -13.2932   -2.6602   58.8409 N.am    1  ZINC000416583757   -1.0100
      8 C8        -13.5669   -2.3590   60.2482 C.3     1  ZINC000416583757    0.0800
      9 S9        -11.7685   -2.4484   58.2303 S.o2    1  ZINC000416583757    2.7800
     10 O10       -11.2845   -3.7434   57.9017 O.2     1  ZINC000416583757   -0.9700
     11 O11       -11.8576   -1.3895   57.2869 O.2     1  ZINC000416583757   -0.9700
     12 N12       -10.8176   -1.8937   59.4674 N.am    1  ZINC000416583757   -1.1300
     13 C13        -9.3999   -1.6103   59.2311 C.3     1  ZINC000416583757    0.1600
     14 C14        -9.0075   -0.3584   59.9725 C.ar    1  ZINC000416583757   -0.0800
     15 C15        -8.8061   -0.3995   61.3392 C.ar    1  ZINC000416583757   -0.0800
     16 C16        -8.4452    0.7497   62.0204 C.ar    1  ZINC000416583757   -0.0300
     17 Cl17       -8.1916    0.6980   63.7370 Cl      1  ZINC000416583757   -0.0500
     18 C18        -8.2863    1.9395   61.3332 C.ar    1  ZINC000416583757   -0.0700
     19 C19        -8.4880    1.9799   59.9653 C.ar    1  ZINC000416583757   -0.0800
     20 Br20       -8.2708    3.6061   59.0250 Br      1  ZINC000416583757   -0.0300
     21 C21        -8.8435    0.8295   59.2847 C.ar    1  ZINC000416583757   -0.0700
     22 H22       -16.6133   -1.6295   55.8503 H       1  ZINC000416583757    0.0700
     23 H23       -15.7266   -3.1422   55.5443 H       1  ZINC000416583757    0.0800
     24 H24       -16.8272   -3.0221   56.9380 H       1  ZINC000416583757    0.0700
     25 H25       -15.1472   -3.6064   58.5835 H       1  ZINC000416583757    0.0900
     26 H26       -13.9682   -3.8877   57.2800 H       1  ZINC000416583757    0.1000
     27 H27       -13.3992   -3.2522   60.8502 H       1  ZINC000416583757    0.0700
     28 H28       -12.9025   -1.5635   60.5855 H       1  ZINC000416583757    0.0800
     29 H29       -14.6028   -2.0374   60.3562 H       1  ZINC000416583757    0.0800
     30 H30       -11.1993   -1.7565   60.3485 H       1  ZINC000416583757    0.4200
     31 H31        -8.7979   -2.4467   59.5863 H       1  ZINC000416583757    0.0800
     32 H32        -9.2306   -1.4685   58.1636 H       1  ZINC000416583757    0.1000
     33 H33        -8.9306   -1.3285   61.8756 H       1  ZINC000416583757    0.1500
     34 H34        -8.0050    2.8368   61.8644 H       1  ZINC000416583757    0.1500
     35 H35        -9.0011    0.8611   58.2166 H       1  ZINC000416583757    0.1400
@<TRIPOS>BOND
     1     1     2    1
     2     1    22    1
     3     1    23    1
     4     1    24    1
     5     2     3    1
     6     2     4    1
     7     2     6    1
     8     4     5    3
     9     6     7    1
    10     6    25    1
    11     6    26    1
    12     7     8    1
    13     7     9   am
    14     8    27    1
    15     8    28    1
    16     8    29    1
    17     9    10    2
    18     9    11    2
    19     9    12   am
    20    12    13    1
    21    12    30    1
    22    13    14    1
    23    13    31    1
    24    13    32    1
    25    14    21   ar
    26    14    15   ar
    27    15    16   ar
    28    15    33    1
    29    16    17    1
    30    16    18   ar
    31    18    19   ar
    32    18    34    1
    33    19    20    1
    34    19    21   ar
    35    21    35    1
@<TRIPOS>SUBSTRUCTURE
     1 ZINC000416583757        1 TEMP              0 ****  ****    0 ROOT


##########                                Name:    ZINC000426607143
##########                DOCK_Rotatable_Bonds:                   3
##########                         Heavy_Atoms:                  25
##########                    Molecular_Weight:             419.302
##########                DOCK_Rotatable_Bonds:                   3
##########                       Formal_Charge:         1.49012e-07
##########                     HBond_Acceptors:                   7
##########                        HBond_Donors:                   0
##########                         Heavy_Atoms:                  25
##########                          Grid_Score:          -26.400179
##########                     Grid_vdw_energy:          -25.923975
##########                      Grid_es_energy:           -0.476204
##########           Internal_energy_repulsive:            7.797775

@<TRIPOS>MOLECULE
ZINC000426607143
 40 43 1 0 0
SMALL
USER_CHARGES


@<TRIPOS>ATOM
      1 C1        -11.1249   -2.9985   57.4113 C.3     1  ZINC000426607143   -0.0900
      2 C2        -12.5825   -2.7872   57.0921 C.2     1  ZINC000426607143    0.1600
      3 N3        -13.5171   -3.4224   57.7303 N.2     1  ZINC000426607143   -0.4600
      4 S4        -15.0042   -2.9194   57.0902 S.3     1  ZINC000426607143    0.2900
      5 C5        -14.3406   -1.8285   55.9374 C.2     1  ZINC000426607143   -0.1300
      6 C6        -15.0943   -0.9705   54.9541 C.3     1  ZINC000426607143   -0.0800
      7 C7        -12.9895   -1.8993   56.1052 C.2     1  ZINC000426607143   -0.1200
      8 C8        -12.0353   -1.1030   55.2958 C.2     1  ZINC000426607143    0.2500
      9 N9        -11.1950   -1.5668   54.4068 N.2     1  ZINC000426607143   -0.3700
     10 O10       -10.5567   -0.6564   53.9221 O.3     1  ZINC000426607143    0.0900
     11 C11       -10.9329    0.5061   54.4640 C.2     1  ZINC000426607143    0.2000
     12 C12       -10.3812    1.8685   54.1319 C.3     1  ZINC000426607143   -0.0300
     13 H13       -11.1774    2.6127   54.1352 H       1  ZINC000426607143    0.1600
     14 C14        -9.2694    2.2609   55.1325 C.3     1  ZINC000426607143   -0.1200
     15 C15        -8.2785    3.0185   54.2212 C.3     1  ZINC000426607143    0.1000
     16 N16        -8.5053    2.4896   52.8711 N.am    1  ZINC000426607143   -0.5800
     17 C17        -7.6117    2.6385   51.8042 C.ar    1  ZINC000426607143    0.1700
     18 C18        -6.6825    1.6441   51.5311 C.ar    1  ZINC000426607143   -0.1000
     19 C19        -5.8017    1.7939   50.4773 C.ar    1  ZINC000426607143   -0.1000
     20 C20        -5.8443    2.9331   49.6950 C.ar    1  ZINC000426607143   -0.1000
     21 C21        -6.7685    3.9261   49.9639 C.ar    1  ZINC000426607143   -0.0900
     22 C22        -7.6563    3.7798   51.0125 C.ar    1  ZINC000426607143   -0.0800
     23 Br23       -8.9198    5.1379   51.3797 Br      1  ZINC000426607143   -0.0400
     24 C24        -9.6844    1.8445   52.7892 C.2     1  ZINC000426607143    0.5300
     25 O25       -10.1206    1.3188   51.7869 O.2     1  ZINC000426607143   -0.4900
     26 N26       -11.8747    0.2394   55.3342 N.2     1  ZINC000426607143   -0.4600
     27 H27       -10.8166   -2.2950   58.1848 H       1  ZINC000426607143    0.0900
     28 H28       -10.9749   -4.0179   57.7668 H       1  ZINC000426607143    0.0800
     29 H29       -10.5289   -2.8353   56.5134 H       1  ZINC000426607143    0.1100
     30 H30       -16.1649   -1.1376   55.0719 H       1  ZINC000426607143    0.0800
     31 H31       -14.8678    0.0794   55.1399 H       1  ZINC000426607143    0.0900
     32 H32       -14.7951   -1.2327   53.9392 H       1  ZINC000426607143    0.0900
     33 H33        -9.6597    2.9144   55.9126 H       1  ZINC000426607143    0.1100
     34 H34        -8.8032    1.3754   55.5645 H       1  ZINC000426607143    0.1000
     35 H35        -8.4851    4.0885   54.2468 H       1  ZINC000426607143    0.0900
     36 H36        -7.2530    2.8240   54.5352 H       1  ZINC000426607143    0.0900
     37 H37        -6.6479    0.7541   52.1419 H       1  ZINC000426607143    0.1400
     38 H38        -5.0787    1.0204   50.2646 H       1  ZINC000426607143    0.1400
     39 H39        -5.1540    3.0479   48.8724 H       1  ZINC000426607143    0.1400
     40 H40        -6.7992    4.8148   49.3510 H       1  ZINC000426607143    0.1400
@<TRIPOS>BOND
     1     1     2    1
     2     1    27    1
     3     1    28    1
     4     1    29    1
     5     2     7    1
     6     2     3    2
     7     3     4    1
     8     4     5    1
     9     5     6    1
    10     5     7    2
    11     6    30    1
    12     6    31    1
    13     6    32    1
    14     7     8    1
    15     8    26    1
    16     8     9    2
    17     9    10    1
    18    10    11    1
    19    11    12    1
    20    11    26    2
    21    12    13    1
    22    12    24    1
    23    12    14    1
    24    14    15    1
    25    14    33    1
    26    14    34    1
    27    15    16    1
    28    15    35    1
    29    15    36    1
    30    16    17    1
    31    16    24   am
    32    17    22   ar
    33    17    18   ar
    34    18    19   ar
    35    18    37    1
    36    19    20   ar
    37    19    38    1
    38    20    21   ar
    39    20    39    1
    40    21    22   ar
    41    21    40    1
    42    22    23    1
    43    24    25    2
@<TRIPOS>SUBSTRUCTURE
     1 ZINC000426607143        1 TEMP              0 ****  ****    0 ROOT


##########                                Name:    ZINC001173835973
##########                DOCK_Rotatable_Bonds:                   4
##########                         Heavy_Atoms:                  26
##########                    Molecular_Weight:             343.388
##########                DOCK_Rotatable_Bonds:                   4
##########                       Formal_Charge:           -0.010001
##########                     HBond_Acceptors:                   6
##########                        HBond_Donors:                   4
##########                         Heavy_Atoms:                  26
##########                          Grid_Score:          -26.380375
##########                     Grid_vdw_energy:          -22.242687
##########                      Grid_es_energy:           -4.137688
##########           Internal_energy_repulsive:            7.435908

@<TRIPOS>MOLECULE
ZINC001173835973
 43 46 1 0 0
SMALL
USER_CHARGES


@<TRIPOS>ATOM
      1 C1         -8.1926    0.6149   63.3378 C.3     1  ZINC001173835973   -0.1700
      2 C2         -9.2462    0.2463   62.3252 C.2     1  ZINC001173835973    0.5100
      3 O3        -10.2267    0.9469   62.1878 O.2     1  ZINC001173835973   -0.5200
      4 N4         -9.0989   -0.8618   61.5723 N.am    1  ZINC001173835973   -0.6800
      5 C5        -10.0770   -1.2041   60.6322 C.ar    1  ZINC001173835973    0.1800
      6 C6         -9.7342   -1.3505   59.2941 C.ar    1  ZINC001173835973   -0.1900
      7 C7        -10.6995   -1.6885   58.3645 C.ar    1  ZINC001173835973   -0.0600
      8 C8        -12.0078   -1.8825   58.7624 C.ar    1  ZINC001173835973   -0.1900
      9 C9        -12.3577   -1.7376   60.1001 C.ar    1  ZINC001173835973    0.2200
     10 N10       -13.6804   -1.9337   60.5018 N.pl3   1  ZINC001173835973   -0.6900
     11 C11       -14.7267   -1.3613   59.7689 C.ar    1  ZINC001173835973    0.0400
     12 C12       -15.3920   -2.1088   58.8424 C.ar    1  ZINC001173835973    0.2400
     13 N13       -15.0235   -3.4423   58.6316 N.pl3   1  ZINC001173835973   -0.8600
     14 C14       -16.4852   -1.5290   58.0697 C.ar    1  ZINC001173835973   -0.1100
     15 C15       -17.1744   -2.2939   57.1146 C.ar    1  ZINC001173835973   -0.0600
     16 C16       -18.1918   -1.6986   56.4191 C.ar    1  ZINC001173835973   -0.1700
     17 C17       -18.5154   -0.3703   56.6695 C.ar    1  ZINC001173835973    0.1200
     18 N18       -17.8658    0.3383   57.5647 N.ar    1  ZINC001173835973   -0.4400
     19 C19       -16.8673   -0.1846   58.2728 C.ar    1  ZINC001173835973    0.1900
     20 C20       -16.1513    0.6199   59.2699 C.ar    1  ZINC001173835973    0.1300
     21 N21       -16.4846    1.8901   59.4877 N.ar    1  ZINC001173835973   -0.4400
     22 C22       -15.8523    2.6216   60.3770 C.ar    1  ZINC001173835973    0.1000
     23 C23       -14.8064    2.1051   61.1321 C.ar    1  ZINC001173835973   -0.1500
     24 C24       -14.4160    0.8052   60.9549 C.ar    1  ZINC001173835973   -0.0700
     25 C25       -15.1009    0.0288   60.0063 C.ar    1  ZINC001173835973   -0.0400
     26 C26       -11.3893   -1.4032   61.0366 C.ar    1  ZINC001173835973   -0.1900
     27 H27        -8.4832    1.5343   63.8461 H       1  ZINC001173835973    0.1000
     28 H28        -8.0937   -0.1883   64.0680 H       1  ZINC001173835973    0.0900
     29 H29        -7.2391    0.7653   62.8316 H       1  ZINC001173835973    0.0900
     30 H30        -8.3147   -1.4220   61.6821 H       1  ZINC001173835973    0.4100
     31 H31        -8.7121   -1.1995   58.9795 H       1  ZINC001173835973    0.1200
     32 H32       -10.4302   -1.8010   57.3247 H       1  ZINC001173835973    0.1200
     33 H33       -12.7598   -2.1466   58.0336 H       1  ZINC001173835973    0.1200
     34 H34       -13.8745   -2.4668   61.2886 H       1  ZINC001173835973    0.4000
     35 H35       -14.3533   -3.8556   59.1980 H       1  ZINC001173835973    0.4100
     36 H36       -15.4385   -3.9532   57.9191 H       1  ZINC001173835973    0.4000
     37 H37       -16.9084   -3.3249   56.9335 H       1  ZINC001173835973    0.1400
     38 H38       -18.7414   -2.2592   55.6774 H       1  ZINC001173835973    0.1400
     39 H39       -19.3197    0.0900   56.1150 H       1  ZINC001173835973    0.1700
     40 H40       -16.1523    3.6486   60.5244 H       1  ZINC001173835973    0.1600
     41 H41       -14.3026    2.7277   61.8567 H       1  ZINC001173835973    0.1400
     42 H42       -13.6050    0.3865   61.5323 H       1  ZINC001173835973    0.1400
     43 H43       -11.6582   -1.2904   62.0765 H       1  ZINC001173835973    0.1400
@<TRIPOS>BOND
     1     1     2    1
     2     1    27    1
     3     1    28    1
     4     1    29    1
     5     2     3    2
     6     2     4   am
     7     4     5    1
     8     4    30    1
     9     5    26   ar
    10     5     6   ar
    11     6     7   ar
    12     6    31    1
    13     7     8   ar
    14     7    32    1
    15     8     9   ar
    16     8    33    1
    17     9    10    1
    18     9    26   ar
    19    10    11    1
    20    10    34    1
    21    11    25   ar
    22    11    12   ar
    23    12    13    1
    24    12    14   ar
    25    13    35    1
    26    13    36    1
    27    14    19   ar
    28    14    15   ar
    29    15    16   ar
    30    15    37    1
    31    16    17   ar
    32    16    38    1
    33    17    18   ar
    34    17    39    1
    35    18    19   ar
    36    19    20   ar
    37    20    25   ar
    38    20    21   ar
    39    21    22   ar
    40    22    23   ar
    41    22    40    1
    42    23    24   ar
    43    23    41    1
    44    24    25   ar
    45    24    42    1
    46    26    43    1
@<TRIPOS>SUBSTRUCTURE
     1 ZINC001173835973        1 TEMP              0 ****  ****    0 ROOT


##########                                Name:    ZINC001345266033
##########                DOCK_Rotatable_Bonds:                   4
##########                         Heavy_Atoms:                  29
##########                    Molecular_Weight:               389.5
##########                DOCK_Rotatable_Bonds:                   4
##########                       Formal_Charge:          -0.0100001
##########                     HBond_Acceptors:                   6
##########                        HBond_Donors:                   0
##########                         Heavy_Atoms:                  29
##########                          Grid_Score:          -26.360966
##########                     Grid_vdw_energy:          -26.687010
##########                      Grid_es_energy:            0.326045
##########           Internal_energy_repulsive:           14.275819

@<TRIPOS>MOLECULE
ZINC001345266033
 56 61 1 0 0
SMALL
USER_CHARGES


@<TRIPOS>ATOM
      1 C1          1.2846    0.8637   44.3447 C.ar    1  ZINC001345266033   -0.1100
      2 C2         -0.0190    1.0623   44.7919 C.ar    1  ZINC001345266033   -0.0900
      3 C3         -0.3044    1.1066   46.1256 C.ar    1  ZINC001345266033   -0.1100
      4 C4          0.7276    0.9496   47.0537 C.ar    1  ZINC001345266033    0.0000
      5 C5          2.0572    0.7465   46.6026 C.ar    1  ZINC001345266033   -0.1100
      6 C6          2.3141    0.7070   45.2234 C.ar    1  ZINC001345266033   -0.0900
      7 C7          3.0755    0.5912   47.5571 C.ar    1  ZINC001345266033    0.1700
      8 N8          2.8080    0.6322   48.8401 N.ar    1  ZINC001345266033   -0.4800
      9 C9          1.5939    0.8177   49.3310 C.ar    1  ZINC001345266033    0.0900
     10 C10         0.4958    0.9852   48.4973 C.ar    1  ZINC001345266033   -0.0700
     11 C11        -0.8568    1.1919   49.0485 C.2     1  ZINC001345266033    0.2300
     12 N12        -1.7425    0.2588   49.3161 N.2     1  ZINC001345266033   -0.2600
     13 N13        -2.8130    0.7929   49.7854 N.2     1  ZINC001345266033   -0.3000
     14 C14        -2.6770    2.0986   49.8463 C.2     1  ZINC001345266033    0.3600
     15 N15        -3.6228    3.0016   50.2986 N.3     1  ZINC001345266033   -0.4600
     16 C16        -4.9324    2.7415   49.6886 C.3     1  ZINC001345266033    0.0600
     17 C17        -5.9000    3.8766   50.0291 C.3     1  ZINC001345266033   -0.1100
     18 C18        -6.1003    3.9298   51.5484 C.3     1  ZINC001345266033   -0.0800
     19 C19        -4.7255    4.0369   52.2169 C.3     1  ZINC001345266033   -0.1300
     20 C20        -4.2052    5.4336   52.5526 C.3     1  ZINC001345266033   -0.1600
     21 C21        -4.6754    4.5012   53.6714 C.3     1  ZINC001345266033   -0.1700
     22 C22        -3.7074    2.9851   51.7666 C.3     1  ZINC001345266033    0.1100
     23 N23        -1.4277    2.3981   49.3856 N.pl3   1  ZINC001345266033   -0.4600
     24 C24        -0.8233    3.7274   49.2667 C.3     1  ZINC001345266033    0.1000
     25 C25        -0.5197    4.2761   50.6623 C.3     1  ZINC001345266033   -0.1400
     26 H26        -1.4307    4.6464   51.1322 H       1  ZINC001345266033    0.1000
     27 C27         0.5440    5.3982   50.5836 C.3     1  ZINC001345266033   -0.1500
     28 C28         1.4284    5.0945   51.8199 C.3     1  ZINC001345266033    0.0500
     29 O29         1.4611    3.6517   51.8642 O.3     1  ZINC001345266033   -0.3700
     30 C30         0.1359    3.1906   51.5378 C.3     1  ZINC001345266033    0.0300
     31 H31         1.4824    0.8287   43.2835 H       1  ZINC001345266033    0.1300
     32 H32        -0.8158    1.1834   44.0729 H       1  ZINC001345266033    0.1300
     33 H33        -1.3192    1.2619   46.4606 H       1  ZINC001345266033    0.1600
     34 H34         3.3200    0.5531   44.8615 H       1  ZINC001345266033    0.1400
     35 H35         4.0929    0.4355   47.2299 H       1  ZINC001345266033    0.1700
     36 H36         1.4535    0.8390   50.4016 H       1  ZINC001345266033    0.1700
     37 H37        -4.8206    2.6733   48.6065 H       1  ZINC001345266033    0.0700
     38 H38        -5.3292    1.8008   50.0703 H       1  ZINC001345266033    0.0500
     39 H39        -5.4864    4.8239   49.6831 H       1  ZINC001345266033    0.0800
     40 H40        -6.8582    3.6969   49.5417 H       1  ZINC001345266033    0.0800
     41 H41        -6.7025    4.8004   51.8082 H       1  ZINC001345266033    0.0700
     42 H42        -6.6007    3.0214   51.8838 H       1  ZINC001345266033    0.0700
     43 H43        -3.1332    5.6074   52.4593 H       1  ZINC001345266033    0.0900
     44 H44        -4.8428    6.2817   52.3030 H       1  ZINC001345266033    0.0900
     45 H45        -5.6222    4.7358   54.1578 H       1  ZINC001345266033    0.1000
     46 H46        -3.9126    4.0615   54.3141 H       1  ZINC001345266033    0.1000
     47 H47        -4.0281    1.9991   52.1027 H       1  ZINC001345266033    0.0600
     48 H48        -2.7306    3.2175   52.1911 H       1  ZINC001345266033    0.0800
     49 H49         0.1021    3.6560   48.6952 H       1  ZINC001345266033    0.1100
     50 H50        -1.5153    4.3968   48.7558 H       1  ZINC001345266033    0.1100
     51 H51         1.1227    5.3218   49.6632 H       1  ZINC001345266033    0.0800
     52 H52         0.0799    6.3808   50.6694 H       1  ZINC001345266033    0.0900
     53 H53         2.4319    5.4971   51.6821 H       1  ZINC001345266033    0.1000
     54 H54         0.9734    5.4961   52.7253 H       1  ZINC001345266033    0.0600
     55 H55        -0.4420    3.0475   52.4508 H       1  ZINC001345266033    0.0600
     56 H56         0.1955    2.2538   50.9838 H       1  ZINC001345266033    0.0900
@<TRIPOS>BOND
     1     1     6   ar
     2     1     2   ar
     3     1    31    1
     4     2     3   ar
     5     2    32    1
     6     3     4   ar
     7     3    33    1
     8     4    10   ar
     9     4     5   ar
    10     5     6   ar
    11     5     7   ar
    12     6    34    1
    13     7     8   ar
    14     7    35    1
    15     8     9   ar
    16     9    10   ar
    17     9    36    1
    18    10    11    1
    19    11    23    1
    20    11    12    2
    21    12    13    1
    22    13    14    2
    23    14    15    1
    24    14    23    1
    25    15    22    1
    26    15    16    1
    27    16    17    1
    28    16    37    1
    29    16    38    1
    30    17    18    1
    31    17    39    1
    32    17    40    1
    33    18    19    1
    34    18    41    1
    35    18    42    1
    36    19    21    1
    37    19    20    1
    38    19    22    1
    39    20    21    1
    40    20    43    1
    41    20    44    1
    42    21    45    1
    43    21    46    1
    44    22    47    1
    45    22    48    1
    46    23    24    1
    47    24    25    1
    48    24    49    1
    49    24    50    1
    50    25    26    1
    51    25    30    1
    52    25    27    1
    53    27    28    1
    54    27    51    1
    55    27    52    1
    56    28    29    1
    57    28    53    1
    58    28    54    1
    59    29    30    1
    60    30    55    1
    61    30    56    1
@<TRIPOS>SUBSTRUCTURE
     1 ZINC001345266033        1 TEMP              0 ****  ****    0 ROOT


##########                                Name:    ZINC001318556452
##########                DOCK_Rotatable_Bonds:                   4
##########                         Heavy_Atoms:                  26
##########                    Molecular_Weight:             368.456
##########                DOCK_Rotatable_Bonds:                   4
##########                       Formal_Charge:          -0.0200005
##########                     HBond_Acceptors:                   6
##########                        HBond_Donors:                   1
##########                         Heavy_Atoms:                  26
##########                          Grid_Score:          -26.358662
##########                     Grid_vdw_energy:          -26.058910
##########                      Grid_es_energy:           -0.299751
##########           Internal_energy_repulsive:           26.990528

@<TRIPOS>MOLECULE
ZINC001318556452
 46 48 1 0 0
SMALL
USER_CHARGES


@<TRIPOS>ATOM
      1 C1         -1.8869    2.8080   46.7249 C.3     1  ZINC001318556452   -0.1300
      2 C2         -1.4008    1.4445   47.1438 C.ar    1  ZINC001318556452   -0.1000
      3 C3         -0.4413    0.7925   46.3949 C.ar    1  ZINC001318556452   -0.0500
      4 C4          0.1195    1.4451   45.1576 C.3     1  ZINC001318556452   -0.4100
      5 S5          0.8515    3.0456   45.5971 S.o     1  ZINC001318556452    1.2500
      6 C6          1.4616    3.6661   44.0055 C.3     1  ZINC001318556452   -0.4900
      7 O7          1.9481    2.8393   46.4770 O.2     1  ZINC001318556452   -0.8400
      8 C8          0.0060   -0.4585   46.7792 C.ar    1  ZINC001318556452   -0.1200
      9 C9         -0.5062   -1.0610   47.9134 C.ar    1  ZINC001318556452   -0.1000
     10 C10        -1.4669   -0.4148   48.6666 C.ar    1  ZINC001318556452   -0.1200
     11 C11        -1.9135    0.8444   48.2872 C.ar    1  ZINC001318556452    0.1400
     12 N12        -2.8853    1.5015   49.0474 N.am    1  ZINC001318556452   -0.6600
     13 C13        -2.5158    2.3055   50.0640 C.2     1  ZINC001318556452    0.5600
     14 O14        -1.3380    2.4594   50.3196 O.2     1  ZINC001318556452   -0.5000
     15 C15        -3.5466    3.0024   50.8703 C.2     1  ZINC001318556452   -0.0300
     16 C16        -3.3517    4.2863   51.2934 C.2     1  ZINC001318556452   -0.1600
     17 C17        -4.3863    4.9463   52.0861 C.2     1  ZINC001318556452    0.5300
     18 O18        -4.2132    6.0915   52.4639 O.2     1  ZINC001318556452   -0.5200
     19 N19        -5.5265    4.3093   52.4045 N.am    1  ZINC001318556452   -0.5200
     20 C20        -6.5399    5.0064   53.2002 C.3     1  ZINC001318556452    0.0600
     21 C21        -5.7616    3.0136   51.9969 C.ar    1  ZINC001318556452    0.1800
     22 C22        -6.9493    2.3716   52.3373 C.ar    1  ZINC001318556452   -0.1700
     23 C23        -7.1713    1.0763   51.9233 C.ar    1  ZINC001318556452   -0.0600
     24 C24        -6.2212    0.4025   51.1684 C.ar    1  ZINC001318556452   -0.1500
     25 C25        -5.0488    1.0130   50.8230 C.ar    1  ZINC001318556452   -0.0600
     26 C26        -4.8045    2.3285   51.2271 C.ar    1  ZINC001318556452   -0.1100
     27 H27        -1.2627    3.5736   47.1855 H       1  ZINC001318556452    0.0800
     28 H28        -1.8295    2.8967   45.6400 H       1  ZINC001318556452    0.0800
     29 H29        -2.9202    2.9399   47.0460 H       1  ZINC001318556452    0.0700
     30 H30         0.8852    0.8024   44.7232 H       1  ZINC001318556452    0.1000
     31 H31        -0.6804    1.5981   44.4332 H       1  ZINC001318556452    0.1300
     32 H32         0.6281    3.7635   43.3098 H       1  ZINC001318556452    0.1100
     33 H33         1.9296    4.6398   44.1504 H       1  ZINC001318556452    0.1100
     34 H34         2.1937    2.9678   43.5998 H       1  ZINC001318556452    0.0800
     35 H35         0.7569   -0.9662   46.1918 H       1  ZINC001318556452    0.1200
     36 H36        -0.1550   -2.0381   48.2105 H       1  ZINC001318556452    0.1300
     37 H37        -1.8668   -0.8861   49.5522 H       1  ZINC001318556452    0.1500
     38 H38        -3.8256    1.3787   48.8434 H       1  ZINC001318556452    0.4100
     39 H39        -2.4402    4.8091   51.0444 H       1  ZINC001318556452    0.1600
     40 H40        -6.1910    6.0125   53.4322 H       1  ZINC001318556452    0.1000
     41 H41        -7.4692    5.0656   52.6337 H       1  ZINC001318556452    0.0800
     42 H42        -6.7136    4.4594   54.1270 H       1  ZINC001318556452    0.0800
     43 H43        -7.6945    2.8875   52.9246 H       1  ZINC001318556452    0.1400
     44 H44        -8.0933    0.5804   52.1889 H       1  ZINC001318556452    0.1300
     45 H45        -6.4100   -0.6127   50.8519 H       1  ZINC001318556452    0.1300
     46 H46        -4.3144    0.4820   50.2354 H       1  ZINC001318556452    0.1700
@<TRIPOS>BOND
     1     1     2    1
     2     1    27    1
     3     1    28    1
     4     1    29    1
     5     2    11   ar
     6     2     3   ar
     7     3     4    1
     8     3     8   ar
     9     4     5    1
    10     4    30    1
    11     4    31    1
    12     5     6    1
    13     5     7    2
    14     6    32    1
    15     6    33    1
    16     6    34    1
    17     8     9   ar
    18     8    35    1
    19     9    10   ar
    20     9    36    1
    21    10    11   ar
    22    10    37    1
    23    11    12    1
    24    12    13   am
    25    12    38    1
    26    13    14    2
    27    13    15    1
    28    15    26    1
    29    15    16    2
    30    16    17    1
    31    16    39    1
    32    17    18    2
    33    17    19   am
    34    19    20    1
    35    19    21    1
    36    20    40    1
    37    20    41    1
    38    20    42    1
    39    21    26   ar
    40    21    22   ar
    41    22    23   ar
    42    22    43    1
    43    23    24   ar
    44    23    44    1
    45    24    25   ar
    46    24    45    1
    47    25    26   ar
    48    25    46    1
@<TRIPOS>SUBSTRUCTURE
     1 ZINC001318556452        1 TEMP              0 ****  ****    0 ROOT


##########                                Name:    ZINC000928803822
##########                DOCK_Rotatable_Bonds:                   7
##########                         Heavy_Atoms:                  21
##########                    Molecular_Weight:             364.165
##########                DOCK_Rotatable_Bonds:                   7
##########                       Formal_Charge:         -0.00999978
##########                     HBond_Acceptors:                   7
##########                        HBond_Donors:                   1
##########                         Heavy_Atoms:                  21
##########                          Grid_Score:          -26.334127
##########                     Grid_vdw_energy:          -26.347565
##########                      Grid_es_energy:            0.013436
##########           Internal_energy_repulsive:            6.349283

@<TRIPOS>MOLECULE
ZINC000928803822
 34 34 1 0 0
SMALL
USER_CHARGES


@<TRIPOS>ATOM
      1 C1         -6.2652    1.4487   50.6147 C.3     1  ZINC000928803822    0.0900
      2 N2         -5.7225    2.7786   50.3258 N.pl3   1  ZINC000928803822   -0.6300
      3 C3         -6.5757    3.8010   49.7153 C.3     1  ZINC000928803822    0.0900
      4 C4         -4.3914    3.0716   50.6327 C.ar    1  ZINC000928803822    0.2200
      5 C5         -4.0928    3.9061   51.7031 C.ar    1  ZINC000928803822   -0.1500
      6 C6         -2.7764    4.1992   52.0109 C.ar    1  ZINC000928803822   -0.0500
      7 Br7        -2.3801    5.3353   53.4697 Br      1  ZINC000928803822   -0.0400
      8 C8         -1.7510    3.6645   51.2566 C.ar    1  ZINC000928803822   -0.1200
      9 C9         -2.0411    2.8252   50.1795 C.ar    1  ZINC000928803822   -0.0800
     10 C10        -0.9449    2.2512   49.3701 C.2     1  ZINC000928803822    0.5700
     11 O11         0.0766    2.8859   49.1931 O.2     1  ZINC000928803822   -0.5100
     12 N12        -1.0781    1.0242   48.8286 N.am    1  ZINC000928803822   -0.7200
     13 C13         0.0072    0.4562   48.0252 C.3     1  ZINC000928803822    0.1100
     14 H14         0.8656    1.1277   48.0477 H       1  ZINC000928803822    0.1400
     15 C15        -0.4654    0.2810   46.5807 C.3     1  ZINC000928803822   -0.0300
     16 C16        -0.6953    1.6031   45.9757 C.1     1  ZINC000928803822    0.2000
     17 N17        -0.8726    2.6234   45.5088 N.1     1  ZINC000928803822   -0.4000
     18 C18         0.4086   -0.9040   48.5990 C.3     1  ZINC000928803822    0.4400
     19 F19         0.8469   -0.7428   49.9177 F       1  ZINC000928803822   -0.1800
     20 F20        -0.6947   -1.7639   48.5762 F       1  ZINC000928803822   -0.1700
     21 F21         1.4407   -1.4492   47.8280 F       1  ZINC000928803822   -0.1600
     22 C22        -3.3681    2.5252   49.8728 C.ar    1  ZINC000928803822   -0.1200
     23 H23        -6.1140    0.7995   49.7522 H       1  ZINC000928803822    0.0600
     24 H24        -5.7537    1.0278   51.4804 H       1  ZINC000928803822    0.0700
     25 H25        -7.3314    1.5295   50.8263 H       1  ZINC000928803822    0.0700
     26 H26        -7.0730    4.3740   50.4978 H       1  ZINC000928803822    0.0500
     27 H27        -5.9646    4.4691   49.1083 H       1  ZINC000928803822    0.0700
     28 H28        -7.3244    3.3207   49.0852 H       1  ZINC000928803822    0.0700
     29 H29        -4.8910    4.3274   52.2962 H       1  ZINC000928803822    0.1400
     30 H30        -0.7244    3.8959   51.4998 H       1  ZINC000928803822    0.1300
     31 H31        -1.8928    0.5172   48.9709 H       1  ZINC000928803822    0.4100
     32 H32         0.2963   -0.2516   46.0112 H       1  ZINC000928803822    0.1400
     33 H33        -1.3936   -0.2904   46.5688 H       1  ZINC000928803822    0.1300
     34 H34        -3.5984    1.8765   49.0407 H       1  ZINC000928803822    0.1500
@<TRIPOS>BOND
     1     1     2    1
     2     1    23    1
     3     1    24    1
     4     1    25    1
     5     2     3    1
     6     2     4    1
     7     3    26    1
     8     3    27    1
     9     3    28    1
    10     4    22   ar
    11     4     5   ar
    12     5     6   ar
    13     5    29    1
    14     6     7    1
    15     6     8   ar
    16     8     9   ar
    17     8    30    1
    18     9    10    1
    19     9    22   ar
    20    10    11    2
    21    10    12   am
    22    12    13    1
    23    12    31    1
    24    13    14    1
    25    13    15    1
    26    13    18    1
    27    15    16    1
    28    15    32    1
    29    15    33    1
    30    16    17    3
    31    18    19    1
    32    18    20    1
    33    18    21    1
    34    22    34    1
@<TRIPOS>SUBSTRUCTURE
     1 ZINC000928803822        1 TEMP              0 ****  ****    0 ROOT


##########                                Name:    ZINC000599228306
##########                DOCK_Rotatable_Bonds:                   8
##########                         Heavy_Atoms:                  25
##########                    Molecular_Weight:             379.382
##########                DOCK_Rotatable_Bonds:                   8
##########                       Formal_Charge:        -4.09782e-08
##########                     HBond_Acceptors:                  10
##########                        HBond_Donors:                   1
##########                         Heavy_Atoms:                  25
##########                          Grid_Score:          -26.323053
##########                     Grid_vdw_energy:          -25.035456
##########                      Grid_es_energy:           -1.287597
##########           Internal_energy_repulsive:           31.433277

@<TRIPOS>MOLECULE
ZINC000599228306
 44 44 1 0 0
SMALL
USER_CHARGES


@<TRIPOS>ATOM
      1 C1        -14.4992   -3.9174   57.4126 C.3     1  ZINC000599228306    0.0400
      2 O2        -14.3304   -3.4595   58.7801 O.3     1  ZINC000599228306   -0.3500
      3 C3        -14.1860   -2.1332   58.9676 C.2     1  ZINC000599228306    0.5100
      4 O4        -15.0931   -1.4858   59.4513 O.2     1  ZINC000599228306   -0.4800
      5 C5        -12.9260   -1.4668   58.5854 C.ar    1  ZINC000599228306   -0.1500
      6 C6        -12.8539   -0.7277   57.4025 C.ar    1  ZINC000599228306   -0.0100
      7 C7        -11.6716   -0.1068   57.0511 C.ar    1  ZINC000599228306    0.0700
      8 F8        -11.6003    0.6084   55.9071 F       1  ZINC000599228306   -0.1200
      9 C9        -10.5578   -0.2150   57.8692 C.ar    1  ZINC000599228306    0.0100
     10 C10       -10.6212   -0.9448   59.0416 C.ar    1  ZINC000599228306   -0.7100
     11 S11        -9.1992   -1.0749   60.0740 S.o2    1  ZINC000599228306    2.7000
     12 O12        -9.6803   -1.2101   61.4042 O.2     1  ZINC000599228306   -0.9200
     13 O13        -8.3413   -2.0251   59.4573 O.2     1  ZINC000599228306   -0.9300
     14 N14        -8.4105    0.3797   60.0074 N.am    1  ZINC000599228306   -1.1000
     15 C15        -9.0924    1.6031   60.4368 C.3     1  ZINC000599228306    0.1600
     16 H16       -10.1678    1.4278   60.4676 H       1  ZINC000599228306    0.1300
     17 C17        -8.6001    1.9992   61.8302 C.3     1  ZINC000599228306   -0.1700
     18 C18        -8.7922    2.7137   59.4634 C.2     1  ZINC000599228306    0.4700
     19 O19        -9.5880    3.6086   59.3036 O.2     1  ZINC000599228306   -0.4900
     20 O20        -7.6407    2.7085   58.7737 O.3     1  ZINC000599228306   -0.3400
     21 C21        -7.5995    3.4948   57.5537 C.3     1  ZINC000599228306    0.1200
     22 C22        -8.8028    3.1405   56.6777 C.3     1  ZINC000599228306   -0.1900
     23 C23        -7.6445    4.9833   57.9044 C.3     1  ZINC000599228306   -0.1400
     24 C24        -6.3074    3.1888   56.7932 C.3     1  ZINC000599228306   -0.1800
     25 C25       -11.7997   -1.5675   59.4090 C.ar    1  ZINC000599228306    0.2500
     26 F26       -11.8604   -2.2799   60.5554 F       1  ZINC000599228306   -0.0900
     27 H27       -14.6041   -5.0023   57.4031 H       1  ZINC000599228306    0.1100
     28 H28       -15.3924   -3.4622   56.9847 H       1  ZINC000599228306    0.0700
     29 H29       -13.6279   -3.6314   56.8234 H       1  ZINC000599228306    0.0700
     30 H30       -13.7207   -0.6423   56.7639 H       1  ZINC000599228306    0.1700
     31 H31        -9.6358    0.2727   57.5892 H       1  ZINC000599228306    0.1800
     32 H32        -7.4968    0.4217   59.6842 H       1  ZINC000599228306    0.4300
     33 H33        -9.1076    2.9095   62.1497 H       1  ZINC000599228306    0.0900
     34 H34        -8.8173    1.1959   62.5343 H       1  ZINC000599228306    0.0700
     35 H35        -7.5247    2.1745   61.7993 H       1  ZINC000599228306    0.0800
     36 H36        -9.7233    3.3584   57.2194 H       1  ZINC000599228306    0.0600
     37 H37        -8.7718    3.7306   55.7618 H       1  ZINC000599228306    0.0700
     38 H38        -8.7707    2.0800   56.4278 H       1  ZINC000599228306    0.0800
     39 H39        -6.7872    5.2357   58.5284 H       1  ZINC000599228306    0.0700
     40 H40        -7.6135    5.5735   56.9884 H       1  ZINC000599228306    0.0800
     41 H41        -8.5650    5.2013   58.4461 H       1  ZINC000599228306    0.0700
     42 H42        -6.2754    2.1284   56.5433 H       1  ZINC000599228306    0.0800
     43 H43        -6.2765    3.7790   55.8773 H       1  ZINC000599228306    0.0700
     44 H44        -5.4501    3.4412   57.4172 H       1  ZINC000599228306    0.0600
@<TRIPOS>BOND
     1     1     2    1
     2     1    27    1
     3     1    28    1
     4     1    29    1
     5     2     3    1
     6     3     4    2
     7     3     5    1
     8     5    25   ar
     9     5     6   ar
    10     6     7   ar
    11     6    30    1
    12     7     8    1
    13     7     9   ar
    14     9    10   ar
    15     9    31    1
    16    10    11    1
    17    10    25   ar
    18    11    12    2
    19    11    13    2
    20    11    14   am
    21    14    15    1
    22    14    32    1
    23    15    16    1
    24    15    17    1
    25    15    18    1
    26    17    33    1
    27    17    34    1
    28    17    35    1
    29    18    19    2
    30    18    20    1
    31    20    21    1
    32    21    22    1
    33    21    23    1
    34    21    24    1
    35    22    36    1
    36    22    37    1
    37    22    38    1
    38    23    39    1
    39    23    40    1
    40    23    41    1
    41    24    42    1
    42    24    43    1
    43    24    44    1
    44    25    26    1
@<TRIPOS>SUBSTRUCTURE
     1 ZINC000599228306        1 TEMP              0 ****  ****    0 ROOT


##########                                Name:    ZINC001300804061
##########                DOCK_Rotatable_Bonds:                   5
##########                         Heavy_Atoms:                  27
##########                    Molecular_Weight:              390.55
##########                DOCK_Rotatable_Bonds:                   5
##########                       Formal_Charge:                0.01
##########                     HBond_Acceptors:                   7
##########                        HBond_Donors:                   0
##########                         Heavy_Atoms:                  27
##########                          Grid_Score:          -26.304920
##########                     Grid_vdw_energy:          -25.346045
##########                      Grid_es_energy:           -0.958876
##########           Internal_energy_repulsive:           20.456705

@<TRIPOS>MOLECULE
ZINC001300804061
 57 60 1 0 0
SMALL
USER_CHARGES


@<TRIPOS>ATOM
      1 C1         -0.1569   -1.7276   48.5008 C.3     1  ZINC001300804061    0.0300
      2 O2         -0.8863   -0.7588   47.7448 O.3     1  ZINC001300804061   -0.3800
      3 C3         -0.4211    0.5815   47.9150 C.3     1  ZINC001300804061    0.1000
      4 H4          0.6672    0.5993   47.8564 H       1  ZINC001300804061    0.0700
      5 C5         -0.8678    1.1078   49.2808 C.3     1  ZINC001300804061    0.0500
      6 N6         -0.4081    2.4924   49.4477 N.3     1  ZINC001300804061   -0.4600
      7 C7         -0.6818    2.9559   50.7233 C.2     1  ZINC001300804061    0.3600
      8 N8         -1.8205    3.4594   51.1410 N.2     1  ZINC001300804061   -0.3000
      9 N9         -1.7308    3.7896   52.3796 N.2     1  ZINC001300804061   -0.2500
     10 C10        -0.5259    3.5164   52.8300 C.2     1  ZINC001300804061    0.2600
     11 C11        -0.0289    3.7468   54.1956 C.2     1  ZINC001300804061    0.0400
     12 C12        -0.7945    4.0047   55.2929 C.2     1  ZINC001300804061   -0.1300
     13 C13         0.0905    4.1572   56.3777 C.2     1  ZINC001300804061   -0.2100
     14 C14         1.3383    3.9872   55.8973 C.2     1  ZINC001300804061    0.0100
     15 C15         2.6081    4.0627   56.7055 C.3     1  ZINC001300804061   -0.0800
     16 O16         1.2627    3.7338   54.5804 O.3     1  ZINC001300804061   -0.1700
     17 N17         0.1807    2.9685   51.7824 N.pl3   1  ZINC001300804061   -0.4600
     18 C18         1.5701    2.5041   51.7984 C.3     1  ZINC001300804061    0.1200
     19 C19         2.4957    3.6501   51.3854 C.3     1  ZINC001300804061   -0.1000
     20 H20         2.3824    4.4772   52.0863 H       1  ZINC001300804061    0.0900
     21 C21         2.1244    4.1207   49.9823 C.3     1  ZINC001300804061   -0.1200
     22 C22         2.8401    5.4249   49.6432 C.3     1  ZINC001300804061   -0.1200
     23 C23         4.3353    5.1638   49.4432 C.3     1  ZINC001300804061   -0.0800
     24 S24         5.0398    4.5599   51.0060 S.3     1  ZINC001300804061   -0.2600
     25 C25         3.9470    3.1631   51.4041 C.3     1  ZINC001300804061   -0.0700
     26 C26        -0.9960    3.3732   48.4304 C.3     1  ZINC001300804061    0.0600
     27 C27        -0.5531    2.9147   47.0391 C.3     1  ZINC001300804061   -0.1100
     28 C28        -1.0070    1.4698   46.8140 C.3     1  ZINC001300804061   -0.0900
     29 H29        -2.0954    1.4203   46.8478 H       1  ZINC001300804061    0.0800
     30 C30        -0.5155    0.9864   45.4480 C.3     1  ZINC001300804061   -0.1400
     31 H31         0.8906   -1.7100   48.1995 H       1  ZINC001300804061    0.0400
     32 H32        -0.2337   -1.4930   49.5624 H       1  ZINC001300804061    0.0400
     33 H33        -0.5712   -2.7189   48.3168 H       1  ZINC001300804061    0.0900
     34 H34        -1.9555    1.0762   49.3443 H       1  ZINC001300804061    0.0700
     35 H35        -0.4401    0.4859   50.0673 H       1  ZINC001300804061    0.0800
     36 H36        -1.8715    4.0783   55.3244 H       1  ZINC001300804061    0.1600
     37 H37        -0.1799    4.3700   57.4014 H       1  ZINC001300804061    0.1600
     38 H38         2.8513    3.0734   57.0933 H       1  ZINC001300804061    0.0900
     39 H39         3.4219    4.4146   56.0715 H       1  ZINC001300804061    0.0800
     40 H40         2.4695    4.7546   57.5363 H       1  ZINC001300804061    0.0900
     41 H41         1.8302    2.1710   52.8031 H       1  ZINC001300804061    0.1100
     42 H42         1.6841    1.6751   51.0998 H       1  ZINC001300804061    0.1000
     43 H43         2.4102    3.3561   49.2600 H       1  ZINC001300804061    0.0700
     44 H44         1.0472    4.2783   49.9299 H       1  ZINC001300804061    0.0800
     45 H45         2.4198    5.8409   48.7276 H       1  ZINC001300804061    0.0800
     46 H46         2.7027    6.1356   50.4581 H       1  ZINC001300804061    0.0800
     47 H47         4.4740    4.4126   48.6656 H       1  ZINC001300804061    0.0800
     48 H48         4.8320    6.0894   49.1522 H       1  ZINC001300804061    0.1100
     49 H49         4.1893    2.7811   52.3958 H       1  ZINC001300804061    0.1000
     50 H50         4.0791    2.3737   50.6642 H       1  ZINC001300804061    0.0900
     51 H51        -2.0831    3.3310   48.4978 H       1  ZINC001300804061    0.0600
     52 H52        -0.6612    4.3969   48.5990 H       1  ZINC001300804061    0.0800
     53 H53        -1.0021    3.5592   46.2835 H       1  ZINC001300804061    0.0800
     54 H54         0.5331    2.9698   46.9664 H       1  ZINC001300804061    0.0800
     55 H55         0.5729    1.0340   45.4158 H       1  ZINC001300804061    0.0500
     56 H56        -0.8391   -0.0421   45.2886 H       1  ZINC001300804061    0.0600
     57 H57        -0.9304    1.6230   44.6665 H       1  ZINC001300804061    0.0600
@<TRIPOS>BOND
     1     1     2    1
     2     1    31    1
     3     1    32    1
     4     1    33    1
     5     2     3    1
     6     3     4    1
     7     3    28    1
     8     3     5    1
     9     5     6    1
    10     5    34    1
    11     5    35    1
    12     6     7    1
    13     6    26    1
    14     7    17    1
    15     7     8    2
    16     8     9    1
    17     9    10    2
    18    10    11    1
    19    10    17    1
    20    11    16    1
    21    11    12    2
    22    12    13    1
    23    12    36    1
    24    13    14    2
    25    13    37    1
    26    14    15    1
    27    14    16    1
    28    15    38    1
    29    15    39    1
    30    15    40    1
    31    17    18    1
    32    18    19    1
    33    18    41    1
    34    18    42    1
    35    19    20    1
    36    19    25    1
    37    19    21    1
    38    21    22    1
    39    21    43    1
    40    21    44    1
    41    22    23    1
    42    22    45    1
    43    22    46    1
    44    23    24    1
    45    23    47    1
    46    23    48    1
    47    24    25    1
    48    25    49    1
    49    25    50    1
    50    26    27    1
    51    26    51    1
    52    26    52    1
    53    27    28    1
    54    27    53    1
    55    27    54    1
    56    28    29    1
    57    28    30    1
    58    30    55    1
    59    30    56    1
    60    30    57    1
@<TRIPOS>SUBSTRUCTURE
     1 ZINC001300804061        1 TEMP              0 ****  ****    0 ROOT


##########                                Name:    ZINC001327099466
##########                DOCK_Rotatable_Bonds:                   7
##########                         Heavy_Atoms:                  27
##########                    Molecular_Weight:             374.483
##########                DOCK_Rotatable_Bonds:                   7
##########                       Formal_Charge:           0.0199998
##########                     HBond_Acceptors:                   7
##########                        HBond_Donors:                   1
##########                         Heavy_Atoms:                  27
##########                          Grid_Score:          -26.241257
##########                     Grid_vdw_energy:          -25.760992
##########                      Grid_es_energy:           -0.480264
##########           Internal_energy_repulsive:           15.938120

@<TRIPOS>MOLECULE
ZINC001327099466
 57 60 1 0 0
SMALL
USER_CHARGES


@<TRIPOS>ATOM
      1 O1         -1.9939    3.5684   51.6090 O.2     1  ZINC001327099466   -0.4800
      2 C2         -0.9085    3.9403   51.2130 C.2     1  ZINC001327099466    0.5300
      3 N3          0.0920    4.1543   52.0904 N.am    1  ZINC001327099466   -0.6000
      4 C4         -0.1224    3.9532   53.4584 C.2     1  ZINC001327099466    0.2900
      5 N5          0.7462    3.4614   54.3111 N.2     1  ZINC001327099466   -0.3100
      6 N6          0.1440    3.4243   55.5753 N.pl3   1  ZINC001327099466   -0.3500
      7 C7          0.7671    2.9447   56.8114 C.3     1  ZINC001327099466    0.1700
      8 C8          1.3376    4.1325   57.5890 C.3     1  ZINC001327099466   -0.1300
      9 C9          1.9882    3.6316   58.8801 C.3     1  ZINC001327099466   -0.1200
     10 C10         0.9400    2.9178   59.7359 C.3     1  ZINC001327099466   -0.1300
     11 C11         0.3694    1.7302   58.9583 C.3     1  ZINC001327099466   -0.1200
     12 C12        -0.2813    2.2310   57.6673 C.3     1  ZINC001327099466   -0.1300
     13 C13        -1.1104    3.9081   55.4555 C.2     1  ZINC001327099466    0.0700
     14 C14        -1.3024    4.2479   54.1609 C.2     1  ZINC001327099466   -0.2700
     15 C15        -0.6796    4.1549   49.7529 C.2     1  ZINC001327099466    0.5100
     16 O16        -0.3985    5.2604   49.3387 O.2     1  ZINC001327099466   -0.5100
     17 N17        -0.7855    3.1207   48.8950 N.am    1  ZINC001327099466   -0.5700
     18 C18        -1.1254    1.7765   49.3813 C.3     1  ZINC001327099466    0.0400
     19 C19        -0.0657    0.7891   48.8822 C.3     1  ZINC001327099466   -0.1300
     20 C20         0.0490    0.8965   47.3599 C.3     1  ZINC001327099466   -0.1200
     21 C21         0.4896    2.3115   46.9783 C.3     1  ZINC001327099466    0.0800
     22 H22         1.4460    2.5347   47.4513 H       1  ZINC001327099466    0.0700
     23 O23         0.6269    2.4019   45.5588 O.3     1  ZINC001327099466   -0.3500
     24 C24         1.8539    2.9960   45.1302 C.3     1  ZINC001327099466    0.0600
     25 C25         2.9534    1.9715   44.8041 C.3     1  ZINC001327099466   -0.1600
     26 C26         2.3999    1.9518   43.3694 C.3     1  ZINC001327099466   -0.1400
     27 C27         1.8692    3.3698   43.6386 C.3     1  ZINC001327099466   -0.1400
     28 C28        -0.5691    3.3173   47.4551 C.3     1  ZINC001327099466    0.0900
     29 H29         0.9606    4.4476   51.7736 H       1  ZINC001327099466    0.4300
     30 H30         1.5710    2.2502   56.5675 H       1  ZINC001327099466    0.1000
     31 H31         2.0845    4.6409   56.9793 H       1  ZINC001327099466    0.0700
     32 H32         0.5336    4.8268   57.8331 H       1  ZINC001327099466    0.0700
     33 H33         2.7921    2.9372   58.6361 H       1  ZINC001327099466    0.0700
     34 H34         2.3947    4.4778   59.4340 H       1  ZINC001327099466    0.0700
     35 H35         1.4034    2.5610   60.6556 H       1  ZINC001327099466    0.0700
     36 H36         0.1360    3.6123   59.9799 H       1  ZINC001327099466    0.0700
     37 H37         1.1733    1.0356   58.7143 H       1  ZINC001327099466    0.0700
     38 H38        -0.3775    1.2216   59.5681 H       1  ZINC001327099466    0.0700
     39 H39        -1.0852    2.9254   57.9113 H       1  ZINC001327099466    0.0700
     40 H40        -0.6877    1.3848   57.1133 H       1  ZINC001327099466    0.0700
     41 H41        -1.8315    4.0096   56.2531 H       1  ZINC001327099466    0.1800
     42 H42        -2.2051    4.6662   53.7405 H       1  ZINC001327099466    0.1700
     43 H43        -1.1414    1.7754   50.4711 H       1  ZINC001327099466    0.1600
     44 H44        -2.1040    1.4863   48.9991 H       1  ZINC001327099466    0.0700
     45 H45         0.8958    1.0266   49.3372 H       1  ZINC001327099466    0.0700
     46 H46        -0.3570   -0.2253   49.1545 H       1  ZINC001327099466    0.0900
     47 H47         0.7847    0.1774   46.9997 H       1  ZINC001327099466    0.0800
     48 H48        -0.9191    0.6830   46.9068 H       1  ZINC001327099466    0.0800
     49 H49         2.1859    3.8012   45.7856 H       1  ZINC001327099466    0.0700
     50 H50         3.9628    2.3763   44.8771 H       1  ZINC001327099466    0.0900
     51 H51         2.8372    1.0239   45.3299 H       1  ZINC001327099466    0.0700
     52 H52         3.1742    1.9136   42.6032 H       1  ZINC001327099466    0.0700
     53 H53         1.6133    1.2132   43.2150 H       1  ZINC001327099466    0.0800
     54 H54         0.8776    3.5510   43.2236 H       1  ZINC001327099466    0.0800
     55 H55         2.5821    4.1568   43.3931 H       1  ZINC001327099466    0.0900
     56 H56        -1.5007    3.1511   46.9142 H       1  ZINC001327099466    0.0900
     57 H57        -0.2159    4.3327   47.2752 H       1  ZINC001327099466    0.1000
@<TRIPOS>BOND
     1     1     2    2
     2     2     3   am
     3     2    15    1
     4     3     4    1
     5     3    29    1
     6     4    14    1
     7     4     5    2
     8     5     6    1
     9     6     7    1
    10     6    13    1
    11     7    12    1
    12     7     8    1
    13     7    30    1
    14     8     9    1
    15     8    31    1
    16     8    32    1
    17     9    10    1
    18     9    33    1
    19     9    34    1
    20    10    11    1
    21    10    35    1
    22    10    36    1
    23    11    12    1
    24    11    37    1
    25    11    38    1
    26    12    39    1
    27    12    40    1
    28    13    14    2
    29    13    41    1
    30    14    42    1
    31    15    16    2
    32    15    17   am
    33    17    28    1
    34    17    18    1
    35    18    19    1
    36    18    43    1
    37    18    44    1
    38    19    20    1
    39    19    45    1
    40    19    46    1
    41    20    21    1
    42    20    47    1
    43    20    48    1
    44    21    22    1
    45    21    23    1
    46    21    28    1
    47    23    24    1
    48    24    27    1
    49    24    25    1
    50    24    49    1
    51    25    26    1
    52    25    50    1
    53    25    51    1
    54    26    27    1
    55    26    52    1
    56    26    53    1
    57    27    54    1
    58    27    55    1
    59    28    56    1
    60    28    57    1
@<TRIPOS>SUBSTRUCTURE
     1 ZINC001327099466        1 TEMP              0 ****  ****    0 ROOT


##########                                Name:    ZINC000863216249
##########                DOCK_Rotatable_Bonds:                   5
##########                         Heavy_Atoms:                  23
##########                    Molecular_Weight:             396.351
##########                DOCK_Rotatable_Bonds:                   5
##########                       Formal_Charge:         -0.00999944
##########                     HBond_Acceptors:                   5
##########                        HBond_Donors:                   1
##########                         Heavy_Atoms:                  23
##########                          Grid_Score:          -26.224813
##########                     Grid_vdw_energy:          -25.494236
##########                      Grid_es_energy:           -0.730578
##########           Internal_energy_repulsive:           27.797764

@<TRIPOS>MOLECULE
ZINC000863216249
 45 48 1 0 0
SMALL
USER_CHARGES


@<TRIPOS>ATOM
      1 S1        -13.7144   -2.8198   60.6322 S.2     1  ZINC000863216249   -0.5900
      2 C2        -13.2772   -2.3010   59.0605 C.2     1  ZINC000863216249    0.5600
      3 N3        -11.9790   -2.1181   58.7479 N.am    1  ZINC000863216249   -0.6800
      4 C4        -10.9423   -2.3575   59.7549 C.3     1  ZINC000863216249    0.1200
      5 C5         -9.5887   -1.8932   59.2138 C.3     1  ZINC000863216249    0.0400
      6 N6         -9.2081   -0.6320   59.8636 N.3     1  ZINC000863216249   -0.5300
      7 C7         -8.8791   -0.8474   61.2803 C.3     1  ZINC000863216249    0.0000
      8 C8         -8.4318    0.4781   61.9021 C.3     1  ZINC000863216249    0.0600
      9 O9         -9.4637    1.4529   61.7281 O.3     1  ZINC000863216249   -0.3800
     10 C10        -9.8088    1.6880   60.3602 C.3     1  ZINC000863216249    0.0600
     11 C11       -10.2700    0.3748   59.7228 C.3     1  ZINC000863216249    0.0200
     12 N12       -14.2309   -2.0808   58.1339 N.am    1  ZINC000863216249   -0.5100
     13 C13       -15.6721   -2.2451   58.3545 C.3     1  ZINC000863216249    0.1200
     14 C14       -16.3202   -1.8769   57.0162 C.3     1  ZINC000863216249   -0.1100
     15 C15       -17.5565   -2.6038   56.5014 C.3     1  ZINC000863216249   -0.1500
     16 C16       -17.6540   -1.1431   56.9504 C.3     1  ZINC000863216249   -0.1500
     17 C17       -15.1734   -1.5206   56.1060 C.ar    1  ZINC000863216249   -0.0700
     18 C18       -15.1472   -1.1136   54.7861 C.ar    1  ZINC000863216249   -0.0800
     19 C19       -13.9422   -0.8426   54.1652 C.ar    1  ZINC000863216249   -0.1000
     20 C20       -12.7592   -0.9797   54.8692 C.ar    1  ZINC000863216249   -0.0700
     21 Br21      -11.1096   -0.6090   54.0223 Br      1  ZINC000863216249   -0.0400
     22 C22       -12.7798   -1.3859   56.1875 C.ar    1  ZINC000863216249   -0.0900
     23 C23       -13.9925   -1.6563   56.8227 C.ar    1  ZINC000863216249    0.1400
     24 H24       -11.7311   -1.8279   57.8561 H       1  ZINC000863216249    0.4000
     25 H25       -11.1812   -1.8016   60.6616 H       1  ZINC000863216249    0.0900
     26 H26       -10.8965   -3.4224   59.9832 H       1  ZINC000863216249    0.1000
     27 H27        -8.8343   -2.6517   59.4228 H       1  ZINC000863216249    0.0900
     28 H28        -9.6611   -1.7398   58.1371 H       1  ZINC000863216249    0.0400
     29 H29        -9.7594   -1.2174   61.8060 H       1  ZINC000863216249    0.0500
     30 H30        -8.0734   -1.5771   61.3599 H       1  ZINC000863216249    0.1000
     31 H31        -8.2416    0.3352   62.9658 H       1  ZINC000863216249    0.1000
     32 H32        -7.5207    0.8210   61.4117 H       1  ZINC000863216249    0.0600
     33 H33       -10.6144    2.4204   60.3089 H       1  ZINC000863216249    0.1000
     34 H34        -8.9377    2.0662   59.8250 H       1  ZINC000863216249    0.0600
     35 H35       -10.4797    0.5373   58.6655 H       1  ZINC000863216249    0.0900
     36 H36       -11.1725    0.0244   60.2236 H       1  ZINC000863216249    0.0500
     37 H37       -15.9005   -3.2786   58.6147 H       1  ZINC000863216249    0.0900
     38 H38       -16.0147   -1.5710   59.1397 H       1  ZINC000863216249    0.0900
     39 H39       -17.6126   -2.8067   55.4319 H       1  ZINC000863216249    0.1100
     40 H40       -18.0017   -3.3601   57.1479 H       1  ZINC000863216249    0.1100
     41 H41       -18.1632   -0.9387   57.8923 H       1  ZINC000863216249    0.1100
     42 H42       -17.7742   -0.3853   56.1763 H       1  ZINC000863216249    0.1100
     43 H43       -16.0712   -1.0072   54.2372 H       1  ZINC000863216249    0.1400
     44 H44       -13.9243   -0.5249   53.1331 H       1  ZINC000863216249    0.1400
     45 H45       -11.8528   -1.4914   56.7318 H       1  ZINC000863216249    0.1900
@<TRIPOS>BOND
     1     1     2    2
     2     2     3   am
     3     2    12   am
     4     3     4    1
     5     3    24    1
     6     4     5    1
     7     4    25    1
     8     4    26    1
     9     5     6    1
    10     5    27    1
    11     5    28    1
    12     6    11    1
    13     6     7    1
    14     7     8    1
    15     7    29    1
    16     7    30    1
    17     8     9    1
    18     8    31    1
    19     8    32    1
    20     9    10    1
    21    10    11    1
    22    10    33    1
    23    10    34    1
    24    11    35    1
    25    11    36    1
    26    12    23    1
    27    12    13    1
    28    13    14    1
    29    13    37    1
    30    13    38    1
    31    14    16    1
    32    14    15    1
    33    14    17    1
    34    15    16    1
    35    15    39    1
    36    15    40    1
    37    16    41    1
    38    16    42    1
    39    17    23   ar
    40    17    18   ar
    41    18    19   ar
    42    18    43    1
    43    19    20   ar
    44    19    44    1
    45    20    21    1
    46    20    22   ar
    47    22    23   ar
    48    22    45    1
@<TRIPOS>SUBSTRUCTURE
     1 ZINC000863216249        1 TEMP              0 ****  ****    0 ROOT


##########                                Name:    ZINC000648570180
##########                DOCK_Rotatable_Bonds:                   4
##########                         Heavy_Atoms:                  25
##########                    Molecular_Weight:             342.484
##########                DOCK_Rotatable_Bonds:                   4
##########                       Formal_Charge:          0.00999971
##########                     HBond_Acceptors:                   5
##########                        HBond_Donors:                   0
##########                         Heavy_Atoms:                  25
##########                          Grid_Score:          -26.223215
##########                     Grid_vdw_energy:          -25.430531
##########                      Grid_es_energy:           -0.792685
##########           Internal_energy_repulsive:           85.430809

@<TRIPOS>MOLECULE
ZINC000648570180
 55 58 1 0 0
SMALL
USER_CHARGES


@<TRIPOS>ATOM
      1 C1          1.4864    1.0027   46.5531 C.3     1  ZINC000648570180   -0.1500
      2 C2          0.1117    0.3962   46.8421 C.3     1  ZINC000648570180   -0.0600
      3 C3         -0.6174    0.1025   45.5295 C.3     1  ZINC000648570180   -0.1400
      4 C4          0.2682   -0.9007   47.6627 C.3     1  ZINC000648570180   -0.1200
      5 C5         -0.9331   -0.8788   48.6402 C.3     1  ZINC000648570180   -0.1300
      6 C6         -1.0409    0.6200   49.0158 C.3     1  ZINC000648570180   -0.1200
      7 C7         -0.7205    1.3631   47.7024 C.3     1  ZINC000648570180   -0.0700
      8 H8         -1.6444    1.6223   47.1852 H       1  ZINC000648570180    0.0800
      9 C9          0.0860    2.6288   47.9996 C.3     1  ZINC000648570180   -0.1000
     10 H10         1.1219    2.3834   48.2341 H       1  ZINC000648570180    0.1000
     11 C11         0.0057    3.6300   46.8171 C.3     1  ZINC000648570180   -0.1400
     12 C12         0.2333    4.9937   47.5027 C.3     1  ZINC000648570180    0.1200
     13 N13        -0.1116    4.8313   48.9227 N.am    1  ZINC000648570180   -0.6000
     14 C14        -0.0287    5.7905   49.8659 C.2     1  ZINC000648570180    0.5800
     15 O15         0.3578    6.9030   49.5684 O.2     1  ZINC000648570180   -0.5200
     16 C16        -0.4097    5.4873   51.2685 C.ar    1  ZINC000648570180    0.1600
     17 C17         0.5535    5.0816   52.1918 C.ar    1  ZINC000648570180   -0.2000
     18 C18         0.1496    4.8098   53.4918 C.ar    1  ZINC000648570180    0.1800
     19 N19        -1.1250    4.9426   53.8126 N.ar    1  ZINC000648570180   -0.5400
     20 C20        -2.0181    5.3302   52.9126 C.ar    1  ZINC000648570180    0.4800
     21 N21        -3.3440    5.4568   53.2899 N.3     1  ZINC000648570180   -0.4400
     22 C22        -4.1958    4.4671   52.5819 C.3     1  ZINC000648570180    0.0500
     23 C23        -5.4619    4.3884   53.4716 C.3     1  ZINC000648570180   -0.1200
     24 C24        -4.8865    4.4998   54.9022 C.3     1  ZINC000648570180   -0.1300
     25 C25        -3.5138    5.1766   54.7321 C.3     1  ZINC000648570180    0.0400
     26 N26        -1.6746    5.6039   51.6650 N.ar    1  ZINC000648570180   -0.5000
     27 C27        -0.5637    3.4453   49.1445 C.3     1  ZINC000648570180    0.1100
     28 H28         1.9523    1.3096   47.4895 H       1  ZINC000648570180    0.0600
     29 H29         2.1148    0.2603   46.0610 H       1  ZINC000648570180    0.0500
     30 H30         1.3715    1.8700   45.9030 H       1  ZINC000648570180    0.0700
     31 H31        -0.0261   -0.5922   44.9329 H       1  ZINC000648570180    0.0500
     32 H32        -1.5897   -0.3404   45.7453 H       1  ZINC000648570180    0.0500
     33 H33        -0.7559    1.0306   44.9751 H       1  ZINC000648570180    0.0500
     34 H34         0.2142   -1.7730   47.0113 H       1  ZINC000648570180    0.0600
     35 H35         1.2086   -0.8924   48.2136 H       1  ZINC000648570180    0.0700
     36 H36        -1.8417   -1.2189   48.1433 H       1  ZINC000648570180    0.0700
     37 H37        -0.7242   -1.4840   49.5224 H       1  ZINC000648570180    0.0700
     38 H38        -2.0502    0.8574   49.3520 H       1  ZINC000648570180    0.0700
     39 H39        -0.3119    0.8738   49.7853 H       1  ZINC000648570180    0.0700
     40 H40         0.7904    3.4293   46.0878 H       1  ZINC000648570180    0.0900
     41 H41        -0.9773    3.5938   46.3474 H       1  ZINC000648570180    0.0800
     42 H42         1.2786    5.2872   47.4064 H       1  ZINC000648570180    0.0800
     43 H43        -0.4091    5.7485   47.0493 H       1  ZINC000648570180    0.0700
     44 H44         1.5892    4.9810   51.9022 H       1  ZINC000648570180    0.1600
     45 H45         0.8691    4.4931   54.2323 H       1  ZINC000648570180    0.1800
     46 H46        -4.4489    4.8221   51.5830 H       1  ZINC000648570180    0.1000
     47 H47        -3.6993    3.4980   52.5326 H       1  ZINC000648570180    0.0500
     48 H48        -6.1340    5.2199   53.2603 H       1  ZINC000648570180    0.0800
     49 H49        -5.9712    3.4346   53.3340 H       1  ZINC000648570180    0.0800
     50 H50        -5.5368    5.1145   55.5247 H       1  ZINC000648570180    0.0800
     51 H51        -4.7681    3.5089   55.3406 H       1  ZINC000648570180    0.0700
     52 H52        -2.7249    4.5077   55.0758 H       1  ZINC000648570180    0.0900
     53 H53        -3.4866    6.1083   55.2971 H       1  ZINC000648570180    0.0900
     54 H54        -1.6503    3.3862   49.0822 H       1  ZINC000648570180    0.0700
     55 H55        -0.2183    3.0839   50.1130 H       1  ZINC000648570180    0.0800
@<TRIPOS>BOND
     1     1     2    1
     2     1    28    1
     3     1    29    1
     4     1    30    1
     5     2     7    1
     6     2     3    1
     7     2     4    1
     8     3    31    1
     9     3    32    1
    10     3    33    1
    11     4     5    1
    12     4    34    1
    13     4    35    1
    14     5     6    1
    15     5    36    1
    16     5    37    1
    17     6     7    1
    18     6    38    1
    19     6    39    1
    20     7     8    1
    21     7     9    1
    22     9    10    1
    23     9    27    1
    24     9    11    1
    25    11    12    1
    26    11    40    1
    27    11    41    1
    28    12    13    1
    29    12    42    1
    30    12    43    1
    31    13    14   am
    32    13    27    1
    33    14    15    2
    34    14    16    1
    35    16    26   ar
    36    16    17   ar
    37    17    18   ar
    38    17    44    1
    39    18    19   ar
    40    18    45    1
    41    19    20   ar
    42    20    21    1
    43    20    26   ar
    44    21    25    1
    45    21    22    1
    46    22    23    1
    47    22    46    1
    48    22    47    1
    49    23    24    1
    50    23    48    1
    51    23    49    1
    52    24    25    1
    53    24    50    1
    54    24    51    1
    55    25    52    1
    56    25    53    1
    57    27    54    1
    58    27    55    1
@<TRIPOS>SUBSTRUCTURE
     1 ZINC000648570180        1 TEMP              0 ****  ****    0 ROOT


##########                                Name:    ZINC001067560454
##########                DOCK_Rotatable_Bonds:                   4
##########                         Heavy_Atoms:                  25
##########                    Molecular_Weight:             342.444
##########                DOCK_Rotatable_Bonds:                   4
##########                       Formal_Charge:          0.00999971
##########                     HBond_Acceptors:                   7
##########                        HBond_Donors:                   1
##########                         Heavy_Atoms:                  25
##########                          Grid_Score:          -26.184155
##########                     Grid_vdw_energy:          -25.429497
##########                      Grid_es_energy:           -0.754657
##########           Internal_energy_repulsive:           12.281051

@<TRIPOS>MOLECULE
ZINC001067560454
 51 54 1 0 0
SMALL
USER_CHARGES


@<TRIPOS>ATOM
      1 C1        -11.5610    0.9811   51.7255 C.3     1  ZINC001067560454   -0.1500
      2 C2        -11.6897    1.0318   53.2493 C.3     1  ZINC001067560454    0.1000
      3 H3        -11.9773    2.0374   53.5562 H       1  ZINC001067560454    0.0600
      4 C4        -12.7579    0.0347   53.7042 C.3     1  ZINC001067560454   -0.1200
      5 C5        -12.8690    0.0744   55.2307 C.3     1  ZINC001067560454    0.1400
      6 H6        -13.1871    1.0679   55.5471 H       1  ZINC001067560454    0.0900
      7 N7        -13.8498   -0.9185   55.6762 N.am    1  ZINC001067560454   -0.7200
      8 C8        -14.5954   -0.6838   56.7742 C.2     1  ZINC001067560454    0.5400
      9 O9        -14.4534    0.3487   57.3943 O.2     1  ZINC001067560454   -0.5300
     10 C10       -15.6056   -1.7045   57.2314 C.3     1  ZINC001067560454   -0.1100
     11 C11       -16.9860   -1.0984   57.4923 C.3     1  ZINC001067560454   -0.1300
     12 C12       -15.6412   -2.9698   56.3582 C.3     1  ZINC001067560454   -0.1200
     13 C13       -14.5595   -3.5461   57.2870 C.3     1  ZINC001067560454   -0.1400
     14 C14       -15.1008   -2.6020   58.3736 C.3     1  ZINC001067560454   -0.1200
     15 C15       -11.5022   -0.2443   55.8427 C.3     1  ZINC001067560454   -0.1200
     16 C16       -10.4704    0.7608   55.3258 C.3     1  ZINC001067560454    0.0600
     17 N17       -10.4011    0.6833   53.8610 N.3     1  ZINC001067560454   -0.4900
     18 C18        -9.3860    1.4852   53.3694 C.ar    1  ZINC001067560454    0.4400
     19 C19        -8.4193    0.9647   52.4924 C.ar    1  ZINC001067560454   -0.0800
     20 N20        -8.1913   -0.2505   51.9387 N.2     1  ZINC001067560454   -0.4700
     21 C21        -7.1350   -0.1897   51.1808 C.2     1  ZINC001067560454    0.2700
     22 N22        -6.6187    1.0718   51.2017 N.pl3   1  ZINC001067560454   -0.4800
     23 C23        -5.4334    1.5355   50.4762 C.3     1  ZINC001067560454    0.0800
     24 C24        -7.4131    1.8278   52.0262 C.ar    1  ZINC001067560454    0.2800
     25 N25        -7.4119    3.0946   52.4275 N.ar    1  ZINC001067560454   -0.5200
     26 C26        -8.3386    3.5387   53.2503 C.ar    1  ZINC001067560454    0.3300
     27 N27        -9.3058    2.7670   53.7114 N.ar    1  ZINC001067560454   -0.5100
     28 H28       -11.2734   -0.0244   51.4184 H       1  ZINC001067560454    0.0700
     29 H29       -12.5173    1.2402   51.2713 H       1  ZINC001067560454    0.0700
     30 H30       -10.8005    1.6915   51.4013 H       1  ZINC001067560454    0.0500
     31 H31       -13.7176    0.3027   53.2622 H       1  ZINC001067560454    0.0800
     32 H32       -12.4776   -0.9694   53.3857 H       1  ZINC001067560454    0.0800
     33 H33       -13.9626   -1.7448   55.1810 H       1  ZINC001067560454    0.4000
     34 H34       -17.2883   -0.4998   56.6331 H       1  ZINC001067560454    0.0600
     35 H35       -17.7097   -1.8980   57.6508 H       1  ZINC001067560454    0.0700
     36 H36       -16.9434   -0.4659   58.3789 H       1  ZINC001067560454    0.0600
     37 H37       -16.5888   -3.5065   56.4058 H       1  ZINC001067560454    0.0900
     38 H38       -15.2975   -2.8054   55.3370 H       1  ZINC001067560454    0.0700
     39 H39       -14.6991   -4.6023   57.5173 H       1  ZINC001067560454    0.0700
     40 H40       -13.5429   -3.3114   56.9716 H       1  ZINC001067560454    0.0800
     41 H41       -14.3208   -2.1406   58.9793 H       1  ZINC001067560454    0.0800
     42 H42       -15.9006   -3.0381   58.9721 H       1  ZINC001067560454    0.0900
     43 H43       -11.5647   -0.1756   56.9287 H       1  ZINC001067560454    0.0800
     44 H44       -11.2021   -1.2528   55.5579 H       1  ZINC001067560454    0.0800
     45 H45       -10.7638    1.7677   55.6228 H       1  ZINC001067560454    0.0700
     46 H46        -9.4931    0.5280   55.7484 H       1  ZINC001067560454    0.0800
     47 H47        -6.7273   -1.0168   50.6187 H       1  ZINC001067560454    0.2300
     48 H48        -5.7297    1.9048   49.4944 H       1  ZINC001067560454    0.0800
     49 H49        -4.9550    2.3382   51.0373 H       1  ZINC001067560454    0.0900
     50 H50        -4.7336    0.7083   50.3572 H       1  ZINC001067560454    0.0900
     51 H51        -8.3087    4.5738   53.5570 H       1  ZINC001067560454    0.2100
@<TRIPOS>BOND
     1     1     2    1
     2     1    28    1
     3     1    29    1
     4     1    30    1
     5     2     3    1
     6     2    17    1
     7     2     4    1
     8     4     5    1
     9     4    31    1
    10     4    32    1
    11     5     6    1
    12     5     7    1
    13     5    15    1
    14     7     8   am
    15     7    33    1
    16     8     9    2
    17     8    10    1
    18    10    14    1
    19    10    11    1
    20    10    12    1
    21    11    34    1
    22    11    35    1
    23    11    36    1
    24    12    13    1
    25    12    37    1
    26    12    38    1
    27    13    14    1
    28    13    39    1
    29    13    40    1
    30    14    41    1
    31    14    42    1
    32    15    16    1
    33    15    43    1
    34    15    44    1
    35    16    17    1
    36    16    45    1
    37    16    46    1
    38    17    18    1
    39    18    27   ar
    40    18    19   ar
    41    19    24   ar
    42    19    20    1
    43    20    21    2
    44    21    22    1
    45    21    47    1
    46    22    23    1
    47    22    24    1
    48    23    48    1
    49    23    49    1
    50    23    50    1
    51    24    25   ar
    52    25    26   ar
    53    26    27   ar
    54    26    51    1
@<TRIPOS>SUBSTRUCTURE
     1 ZINC001067560454        1 TEMP              0 ****  ****    0 ROOT


##########                                Name:    ZINC000435292384
##########                DOCK_Rotatable_Bonds:                   6
##########                         Heavy_Atoms:                  22
##########                    Molecular_Weight:             326.503
##########                DOCK_Rotatable_Bonds:                   6
##########                       Formal_Charge:         -0.00999993
##########                     HBond_Acceptors:                   5
##########                        HBond_Donors:                   0
##########                         Heavy_Atoms:                  22
##########                          Grid_Score:          -26.173832
##########                     Grid_vdw_energy:          -26.883886
##########                      Grid_es_energy:            0.710054
##########           Internal_energy_repulsive:           20.072676

@<TRIPOS>MOLECULE
ZINC000435292384
 52 53 1 0 0
SMALL
USER_CHARGES


@<TRIPOS>ATOM
      1 C1         -9.0537    1.5748   64.8470 C.3     1  ZINC000435292384   -0.1500
      2 C2         -8.4164    1.2885   63.4859 C.3     1  ZINC000435292384   -0.1200
      3 C3         -9.4429    0.6136   62.5739 C.3     1  ZINC000435292384   -0.1400
      4 C4         -8.7734    0.2211   61.2552 C.3     1  ZINC000435292384    0.1600
      5 H5         -7.8222   -0.2691   61.4626 H       1  ZINC000435292384    0.0900
      6 C6         -8.5281    1.4757   60.4147 C.3     1  ZINC000435292384   -0.1700
      7 N7         -9.6459   -0.6971   60.5190 N.am    1  ZINC000435292384   -0.6100
      8 C8        -11.1054   -0.5658   60.4371 C.3     1  ZINC000435292384    0.1200
      9 C9        -11.5323   -1.4506   59.2449 C.3     1  ZINC000435292384   -0.1300
     10 H10       -11.5796   -0.8685   58.3245 H       1  ZINC000435292384    0.1100
     11 C11       -12.8506   -2.1269   59.5202 C.2     1  ZINC000435292384    0.5200
     12 O12       -13.2401   -2.2542   60.6617 O.2     1  ZINC000435292384   -0.5200
     13 N13       -13.5966   -2.5905   58.4980 N.am    1  ZINC000435292384   -0.6000
     14 C14       -14.8828   -3.2480   58.8018 C.3     1  ZINC000435292384    0.1000
     15 C15       -15.9975   -2.8188   57.8308 C.3     1  ZINC000435292384   -0.1300
     16 C16       -15.8999   -1.3393   57.5509 C.3     1  ZINC000435292384   -0.1100
     17 C17       -15.0367   -1.1147   56.3132 C.3     1  ZINC000435292384   -0.1200
     18 C18       -13.5915   -1.0664   56.5830 C.3     1  ZINC000435292384   -0.0700
     19 H19       -13.3860   -0.2784   57.3075 H       1  ZINC000435292384    0.0900
     20 S20       -12.7045   -0.7105   55.0411 S.3     1  ZINC000435292384   -0.2500
     21 C21       -11.1657    0.0539   55.6228 C.3     1  ZINC000435292384   -0.1200
     22 C22       -13.1068   -2.4181   57.1487 C.3     1  ZINC000435292384    0.1400
     23 C23       -10.3814   -2.4816   59.1891 C.3     1  ZINC000435292384   -0.1400
     24 C24        -9.2119   -1.7646   59.8270 C.2     1  ZINC000435292384    0.5200
     25 O25        -8.0523   -2.1073   59.7336 O.2     1  ZINC000435292384   -0.5200
     26 H26        -8.3225    2.0555   65.4968 H       1  ZINC000435292384    0.0500
     27 H27        -9.9115    2.2342   64.7151 H       1  ZINC000435292384    0.0500
     28 H28        -9.3813    0.6385   65.2990 H       1  ZINC000435292384    0.0500
     29 H29        -8.0887    2.2247   63.0339 H       1  ZINC000435292384    0.0600
     30 H30        -7.5585    0.6290   63.6179 H       1  ZINC000435292384    0.0600
     31 H31        -9.8325   -0.2790   63.0633 H       1  ZINC000435292384    0.0800
     32 H32       -10.2614    1.3050   62.3741 H       1  ZINC000435292384    0.0800
     33 H33        -9.4793    1.9660   60.2074 H       1  ZINC000435292384    0.0700
     34 H34        -7.8790    2.1589   60.9624 H       1  ZINC000435292384    0.0700
     35 H35        -8.0512    1.1962   59.4753 H       1  ZINC000435292384    0.0600
     36 H36       -11.5683   -0.9232   61.3569 H       1  ZINC000435292384    0.0900
     37 H37       -11.3810    0.4727   60.2540 H       1  ZINC000435292384    0.0800
     38 H38       -14.7524   -4.3282   58.7357 H       1  ZINC000435292384    0.0700
     39 H39       -15.1804   -2.9907   59.8184 H       1  ZINC000435292384    0.0900
     40 H40       -15.8956   -3.3709   56.8965 H       1  ZINC000435292384    0.0700
     41 H41       -16.9683   -3.0394   58.2747 H       1  ZINC000435292384    0.0800
     42 H42       -16.8974   -0.9355   57.3769 H       1  ZINC000435292384    0.0700
     43 H43       -15.4477   -0.8365   58.4058 H       1  ZINC000435292384    0.0600
     44 H44       -15.2298   -1.9211   55.6056 H       1  ZINC000435292384    0.0800
     45 H45       -15.3339   -0.1739   55.8499 H       1  ZINC000435292384    0.0600
     46 H46       -11.3992    0.9552   56.1893 H       1  ZINC000435292384    0.0800
     47 H47       -10.6300   -0.6483   56.2617 H       1  ZINC000435292384    0.0800
     48 H48       -10.5430    0.3139   54.7667 H       1  ZINC000435292384    0.1000
     49 H49       -12.0171   -2.4392   57.1551 H       1  ZINC000435292384    0.0900
     50 H50       -13.4814   -3.2286   56.5233 H       1  ZINC000435292384    0.0900
     51 H51       -10.6417   -3.3750   59.7569 H       1  ZINC000435292384    0.1100
     52 H52       -10.1497   -2.7392   58.1557 H       1  ZINC000435292384    0.1100
@<TRIPOS>BOND
     1     1     2    1
     2     1    26    1
     3     1    27    1
     4     1    28    1
     5     2     3    1
     6     2    29    1
     7     2    30    1
     8     3     4    1
     9     3    31    1
    10     3    32    1
    11     4     5    1
    12     4     6    1
    13     4     7    1
    14     6    33    1
    15     6    34    1
    16     6    35    1
    17     7    24   am
    18     7     8    1
    19     8     9    1
    20     8    36    1
    21     8    37    1
    22     9    10    1
    23     9    11    1
    24     9    23    1
    25    11    12    2
    26    11    13   am
    27    13    22    1
    28    13    14    1
    29    14    15    1
    30    14    38    1
    31    14    39    1
    32    15    16    1
    33    15    40    1
    34    15    41    1
    35    16    17    1
    36    16    42    1
    37    16    43    1
    38    17    18    1
    39    17    44    1
    40    17    45    1
    41    18    19    1
    42    18    20    1
    43    18    22    1
    44    20    21    1
    45    21    46    1
    46    21    47    1
    47    21    48    1
    48    22    49    1
    49    22    50    1
    50    23    24    1
    51    23    51    1
    52    23    52    1
    53    24    25    2
@<TRIPOS>SUBSTRUCTURE
     1 ZINC000435292384        1 TEMP              0 ****  ****    0 ROOT


##########                                Name:    ZINC000656860804
##########                DOCK_Rotatable_Bonds:                   2
##########                         Heavy_Atoms:                  19
##########                    Molecular_Weight:             388.068
##########                DOCK_Rotatable_Bonds:                   2
##########                       Formal_Charge:          8.9407e-08
##########                     HBond_Acceptors:                   8
##########                        HBond_Donors:                   1
##########                         Heavy_Atoms:                  19
##########                          Grid_Score:          -26.126755
##########                     Grid_vdw_energy:          -26.398664
##########                      Grid_es_energy:            0.271909
##########           Internal_energy_repulsive:           12.888584

@<TRIPOS>MOLECULE
ZINC000656860804
 28 29 1 0 0
SMALL
USER_CHARGES


@<TRIPOS>ATOM
      1 O1         -0.2409   -1.9115   48.5175 O.2     1  ZINC000656860804   -0.5400
      2 C2         -0.4006   -0.7977   48.0652 C.2     1  ZINC000656860804    0.5100
      3 C3         -1.2468    0.1764   48.8386 C.3     1  ZINC000656860804    0.1100
      4 N4         -1.0548    1.5227   48.2793 N.am    1  ZINC000656860804   -1.0000
      5 S5         -0.8784    2.8458   49.2595 S.o2    1  ZINC000656860804    2.6900
      6 O6          0.1788    2.5410   50.1587 O.2     1  ZINC000656860804   -0.9200
      7 O7         -0.8683    3.9805   48.4041 O.2     1  ZINC000656860804   -0.9300
      8 C8         -2.3404    2.9711   50.2348 C.ar    1  ZINC000656860804   -0.6500
      9 C9         -3.4587    2.2307   49.9013 C.ar    1  ZINC000656860804    0.0100
     10 C10        -4.6070    2.3287   50.6667 C.ar    1  ZINC000656860804   -0.0400
     11 Cl11       -6.0115    1.3983   50.2481 Cl      1  ZINC000656860804   -0.0200
     12 C12        -4.6355    3.1686   51.7670 C.ar    1  ZINC000656860804    0.0200
     13 Cl13       -6.0757    3.2917   52.7284 Cl      1  ZINC000656860804   -0.0100
     14 C14        -3.5157    3.9093   52.1002 C.ar    1  ZINC000656860804   -0.0900
     15 C15        -2.3666    3.8062   51.3376 C.ar    1  ZINC000656860804    0.0100
     16 Br16       -0.8359    4.8187   51.7929 Br      1  ZINC000656860804    0.0100
     17 C17        -1.0251    1.6466   46.8122 C.3     1  ZINC000656860804    0.0900
     18 C18         0.1549    0.8263   46.2874 C.3     1  ZINC000656860804    0.0800
     19 N19         0.1866   -0.4908   46.9075 N.am    1  ZINC000656860804   -0.7100
     20 H20        -2.2963   -0.1066   48.7569 H       1  ZINC000656860804    0.1200
     21 H21        -0.9459    0.1699   49.8862 H       1  ZINC000656860804    0.1200
     22 H22        -3.4363    1.5759   49.0427 H       1  ZINC000656860804    0.1700
     23 H23        -3.5375    4.5649   52.9581 H       1  ZINC000656860804    0.1700
     24 H24        -1.9550    1.2637   46.3919 H       1  ZINC000656860804    0.1000
     25 H25        -0.8984    2.6929   46.5339 H       1  ZINC000656860804    0.1200
     26 H26         0.0620    0.7147   45.2071 H       1  ZINC000656860804    0.1000
     27 H27         1.0842    1.3486   46.5149 H       1  ZINC000656860804    0.0800
     28 H28         0.6630   -1.1966   46.4430 H       1  ZINC000656860804    0.4000
@<TRIPOS>BOND
     1     1     2    2
     2     2    19   am
     3     2     3    1
     4     3     4    1
     5     3    20    1
     6     3    21    1
     7     4     5   am
     8     4    17    1
     9     5     6    2
    10     5     7    2
    11     5     8    1
    12     8    15   ar
    13     8     9   ar
    14     9    10   ar
    15     9    22    1
    16    10    11    1
    17    10    12   ar
    18    12    13    1
    19    12    14   ar
    20    14    15   ar
    21    14    23    1
    22    15    16    1
    23    17    18    1
    24    17    24    1
    25    17    25    1
    26    18    19    1
    27    18    26    1
    28    18    27    1
    29    19    28    1
@<TRIPOS>SUBSTRUCTURE
     1 ZINC000656860804        1 TEMP              0 ****  ****    0 ROOT


##########                                Name:    ZINC000371438955
##########                DOCK_Rotatable_Bonds:                   4
##########                         Heavy_Atoms:                  25
##########                    Molecular_Weight:             387.499
##########                DOCK_Rotatable_Bonds:                   4
##########                       Formal_Charge:          -0.0299995
##########                     HBond_Acceptors:                   9
##########                        HBond_Donors:                   1
##########                         Heavy_Atoms:                  25
##########                          Grid_Score:          -26.116312
##########                     Grid_vdw_energy:          -25.866714
##########                      Grid_es_energy:           -0.249597
##########           Internal_energy_repulsive:           34.144310

@<TRIPOS>MOLECULE
ZINC000371438955
 47 49 1 0 0
SMALL
USER_CHARGES


@<TRIPOS>ATOM
      1 C1         -4.4436    6.0881   52.3126 C.3     1  ZINC000371438955   -0.6800
      2 S2         -6.1164    6.2734   51.6360 S.o2    1  ZINC000371438955    2.6000
      3 O3         -6.9659    6.9170   52.5759 O.2     1  ZINC000371438955   -0.9500
      4 O4         -6.0622    6.7035   50.2828 O.2     1  ZINC000371438955   -0.9500
      5 N5         -6.7009    4.7263   51.5497 N.am    1  ZINC000371438955   -0.9900
      6 C6         -6.8024    3.9544   52.7548 C.3     1  ZINC000371438955    0.1300
      7 C7         -5.4465    3.2694   52.9948 C.3     1  ZINC000371438955   -0.1700
      8 C8         -5.2725    2.0852   52.1390 C.3     1  ZINC000371438955    0.1400
      9 N9         -5.3805    2.4621   50.7097 N.am    1  ZINC000371438955   -0.6200
     10 C10        -4.2675    2.5826   49.9591 C.2     1  ZINC000371438955    0.7100
     11 O11        -4.3556    2.8917   48.7866 O.2     1  ZINC000371438955   -0.5800
     12 N12        -3.0570    2.3606   50.5085 N.am    1  ZINC000371438955   -0.7400
     13 C13        -1.8472    2.4916   49.6927 C.3     1  ZINC000371438955    0.2000
     14 H14        -1.9356    3.3893   49.0809 H       1  ZINC000371438955    0.1100
     15 C15        -1.7468    1.2857   48.7749 C.3     1  ZINC000371438955   -0.1300
     16 C16        -0.5028    1.4358   47.8879 C.3     1  ZINC000371438955   -0.1100
     17 S17         0.9495    1.1530   48.9409 S.3     1  ZINC000371438955   -0.1000
     18 C18         0.5897    2.1307   50.3652 C.ar    1  ZINC000371438955   -0.1100
     19 C19         1.6296    2.3726   51.2673 C.ar    1  ZINC000371438955    0.1100
     20 F20         2.8592    1.8695   51.0222 F       1  ZINC000371438955   -0.1300
     21 C21         1.4117    3.1210   52.4054 C.ar    1  ZINC000371438955   -0.1300
     22 C22         0.1502    3.6316   52.6533 C.ar    1  ZINC000371438955   -0.1000
     23 C23        -0.8755    3.3967   51.7640 C.ar    1  ZINC000371438955   -0.1000
     24 C24        -0.6668    2.6471   50.6059 C.ar    1  ZINC000371438955   -0.0800
     25 C25        -6.6702    2.6984   50.1236 C.3     1  ZINC000371438955    0.1000
     26 C26        -7.1099    4.1836   50.2254 C.3     1  ZINC000371438955    0.0900
     27 H27        -4.4987    5.6186   53.2947 H       1  ZINC000371438955    0.1300
     28 H28        -3.8485    5.4651   51.6450 H       1  ZINC000371438955    0.1300
     29 H29        -3.9781    7.0695   52.4047 H       1  ZINC000371438955    0.1300
     30 H30        -7.0379    4.6096   53.5935 H       1  ZINC000371438955    0.0800
     31 H31        -7.5819    3.2006   52.6450 H       1  ZINC000371438955    0.0800
     32 H32        -4.6474    3.9801   52.7843 H       1  ZINC000371438955    0.0800
     33 H33        -5.3827    2.9648   54.0395 H       1  ZINC000371438955    0.0900
     34 H34        -4.2912    1.6479   52.3235 H       1  ZINC000371438955    0.0900
     35 H35        -6.0422    1.3513   52.3777 H       1  ZINC000371438955    0.0700
     36 H36        -2.9868    2.1140   51.4440 H       1  ZINC000371438955    0.4000
     37 H37        -1.6612    0.3783   49.3728 H       1  ZINC000371438955    0.0900
     38 H38        -2.6369    1.2290   48.1484 H       1  ZINC000371438955    0.1000
     39 H39        -0.5283    0.6985   47.0856 H       1  ZINC000371438955    0.1200
     40 H40        -0.4661    2.4411   47.4678 H       1  ZINC000371438955    0.1000
     41 H41         2.2196    3.3066   53.0976 H       1  ZINC000371438955    0.1400
     42 H42        -0.0307    4.2141   53.5445 H       1  ZINC000371438955    0.1300
     43 H43        -1.8572    3.7982   51.9676 H       1  ZINC000371438955    0.1400
     44 H44        -6.6379    2.4113   49.0725 H       1  ZINC000371438955    0.0800
     45 H45        -7.4082    2.0794   50.6337 H       1  ZINC000371438955    0.0900
     46 H46        -8.1924    4.2504   50.1173 H       1  ZINC000371438955    0.0800
     47 H47        -6.6292    4.7599   49.4349 H       1  ZINC000371438955    0.1000
@<TRIPOS>BOND
     1     1     2    1
     2     1    27    1
     3     1    28    1
     4     1    29    1
     5     2     3    2
     6     2     4    2
     7     2     5   am
     8     5    26    1
     9     5     6    1
    10     6     7    1
    11     6    30    1
    12     6    31    1
    13     7     8    1
    14     7    32    1
    15     7    33    1
    16     8     9    1
    17     8    34    1
    18     8    35    1
    19     9    10   am
    20     9    25    1
    21    10    11    2
    22    10    12   am
    23    12    13    1
    24    12    36    1
    25    13    14    1
    26    13    24    1
    27    13    15    1
    28    15    16    1
    29    15    37    1
    30    15    38    1
    31    16    17    1
    32    16    39    1
    33    16    40    1
    34    17    18    1
    35    18    24   ar
    36    18    19   ar
    37    19    20    1
    38    19    21   ar
    39    21    22   ar
    40    21    41    1
    41    22    23   ar
    42    22    42    1
    43    23    24   ar
    44    23    43    1
    45    25    26    1
    46    25    44    1
    47    25    45    1
    48    26    46    1
    49    26    47    1
@<TRIPOS>SUBSTRUCTURE
     1 ZINC000371438955        1 TEMP              0 ****  ****    0 ROOT


##########                                Name:    ZINC000426037318
##########                DOCK_Rotatable_Bonds:                   7
##########                         Heavy_Atoms:                  28
##########                    Molecular_Weight:             421.904
##########                DOCK_Rotatable_Bonds:                   7
##########                       Formal_Charge:         -0.00999981
##########                     HBond_Acceptors:                   9
##########                        HBond_Donors:                   1
##########                         Heavy_Atoms:                  28
##########                          Grid_Score:          -26.113674
##########                     Grid_vdw_energy:          -24.807358
##########                      Grid_es_energy:           -1.306316
##########           Internal_energy_repulsive:           14.460422

@<TRIPOS>MOLECULE
ZINC000426037318
 48 50 1 0 0
SMALL
USER_CHARGES


@<TRIPOS>ATOM
      1 C1         -8.8805    0.2544   63.3925 C.3     1  ZINC000426037318    0.0300
      2 O2         -8.2829    0.7434   62.1902 O.3     1  ZINC000426037318   -0.3800
      3 C3         -8.1830   -0.2332   61.1518 C.3     1  ZINC000426037318    0.1300
      4 C4         -8.7824    0.3185   59.8840 C.ar    1  ZINC000426037318    0.3900
      5 N5         -8.5188    1.5673   59.5436 N.ar    1  ZINC000426037318   -0.5700
      6 C6         -9.0189    2.0998   58.4414 C.ar    1  ZINC000426037318    0.4400
      7 O7         -8.7375    3.3810   58.1084 O.3     1  ZINC000426037318   -0.2800
      8 C8         -7.3584    3.7534   58.0701 C.3     1  ZINC000426037318    0.0300
      9 C9         -9.8560    1.3060   57.6115 C.ar    1  ZINC000426037318   -0.2000
     10 C10       -10.4995    1.6290   56.4113 C.2     1  ZINC000426037318    0.0500
     11 C11       -10.3805    2.9905   55.7762 C.3     1  ZINC000426037318   -0.1200
     12 C12       -11.2274    0.6472   55.8653 C.2     1  ZINC000426037318   -0.2700
     13 C13       -11.9831    0.7660   54.6121 C.2     1  ZINC000426037318    0.6000
     14 O14       -13.1715    0.5051   54.5912 O.2     1  ZINC000426037318   -0.5000
     15 N15       -11.3606    1.1640   53.4850 N.am    1  ZINC000426037318   -0.6600
     16 C16       -12.0815    1.2774   52.2894 C.ar    1  ZINC000426037318    0.1200
     17 C17       -12.8111    2.4281   52.0247 C.ar    1  ZINC000426037318   -0.0700
     18 C18       -13.5215    2.5394   50.8453 C.ar    1  ZINC000426037318   -0.0900
     19 C19       -14.3132    3.7891   50.5581 C.3     1  ZINC000426037318   -0.1100
     20 C20       -13.5063    1.5018   49.9251 C.ar    1  ZINC000426037318    0.1300
     21 O21       -14.2056    1.6128   48.7643 O.3     1  ZINC000426037318   -0.3100
     22 C22       -13.4737    1.4505   47.5478 C.3     1  ZINC000426037318    0.0200
     23 C23       -12.7776    0.3508   50.1880 C.ar    1  ZINC000426037318   -0.1800
     24 C24       -12.0622    0.2398   51.3646 C.ar    1  ZINC000426037318   -0.0300
     25 Cl25      -11.1497   -1.2000   51.6937 Cl      1  ZINC000426037318   -0.0600
     26 S26       -11.1539   -0.8019   56.8531 S.3     1  ZINC000426037318    0.2200
     27 C27       -10.1024   -0.0126   58.0208 C.ar    1  ZINC000426037318    0.1300
     28 N28        -9.5451   -0.4599   59.1512 N.ar    1  ZINC000426037318   -0.5000
     29 H29        -8.9197    1.0555   64.1307 H       1  ZINC000426037318    0.0900
     30 H30        -9.8914   -0.0937   63.1802 H       1  ZINC000426037318    0.0500
     31 H31        -8.2865   -0.5716   63.7838 H       1  ZINC000426037318    0.0500
     32 H32        -7.1344   -0.4770   60.9819 H       1  ZINC000426037318    0.0900
     33 H33        -8.7222   -1.1334   61.4467 H       1  ZINC000426037318    0.0800
     34 H34        -6.8363    3.1388   57.3368 H       1  ZINC000426037318    0.0700
     35 H35        -7.2732    4.8035   57.7906 H       1  ZINC000426037318    0.1100
     36 H36        -6.9137    3.6020   59.0537 H       1  ZINC000426037318    0.0700
     37 H37        -9.5287    3.0010   55.0962 H       1  ZINC000426037318    0.0900
     38 H38       -11.2915    3.2131   55.2208 H       1  ZINC000426037318    0.1000
     39 H39       -10.2352    3.7419   56.5522 H       1  ZINC000426037318    0.0800
     40 H40       -10.4132    1.3722   53.5017 H       1  ZINC000426037318    0.4100
     41 H41       -12.8237    3.2362   52.7411 H       1  ZINC000426037318    0.1600
     42 H42       -13.6822    4.5063   50.0331 H       1  ZINC000426037318    0.0700
     43 H43       -15.1737    3.5395   49.9374 H       1  ZINC000426037318    0.0700
     44 H44       -14.6563    4.2255   51.4961 H       1  ZINC000426037318    0.0700
     45 H45       -12.6906    2.2067   47.4913 H       1  ZINC000426037318    0.0600
     46 H46       -13.0230    0.4584   47.5244 H       1  ZINC000426037318    0.0600
     47 H47       -14.1490    1.5628   46.6996 H       1  ZINC000426037318    0.1000
     48 H48       -12.7662   -0.4567   49.4709 H       1  ZINC000426037318    0.1500
@<TRIPOS>BOND
     1     1     2    1
     2     1    29    1
     3     1    30    1
     4     1    31    1
     5     2     3    1
     6     3     4    1
     7     3    32    1
     8     3    33    1
     9     4    28   ar
    10     4     5   ar
    11     5     6   ar
    12     6     7    1
    13     6     9   ar
    14     7     8    1
    15     8    34    1
    16     8    35    1
    17     8    36    1
    18     9    27   ar
    19     9    10    1
    20    10    11    1
    21    10    12    2
    22    11    37    1
    23    11    38    1
    24    11    39    1
    25    12    13    1
    26    12    26    1
    27    13    14    2
    28    13    15   am
    29    15    16    1
    30    15    40    1
    31    16    24   ar
    32    16    17   ar
    33    17    18   ar
    34    17    41    1
    35    18    19    1
    36    18    20   ar
    37    19    42    1
    38    19    43    1
    39    19    44    1
    40    20    21    1
    41    20    23   ar
    42    21    22    1
    43    22    45    1
    44    22    46    1
    45    22    47    1
    46    23    24   ar
    47    23    48    1
    48    24    25    1
    49    26    27    1
    50    27    28   ar
@<TRIPOS>SUBSTRUCTURE
     1 ZINC000426037318        1 TEMP              0 ****  ****    0 ROOT


##########                                Name:    ZINC001193456967
##########                DOCK_Rotatable_Bonds:                   3
##########                         Heavy_Atoms:                  27
##########                    Molecular_Weight:             392.451
##########                DOCK_Rotatable_Bonds:                   3
##########                       Formal_Charge:           0.0300002
##########                     HBond_Acceptors:                   8
##########                        HBond_Donors:                   0
##########                         Heavy_Atoms:                  27
##########                          Grid_Score:          -26.093027
##########                     Grid_vdw_energy:          -26.383999
##########                      Grid_es_energy:            0.290972
##########           Internal_energy_repulsive:           38.792732

@<TRIPOS>MOLECULE
ZINC001193456967
 48 50 1 0 0
SMALL
USER_CHARGES


@<TRIPOS>ATOM
      1 C1         -4.6995    4.3270   52.3181 C.3     1  ZINC001193456967   -0.1400
      2 C2         -3.4656    3.7631   51.6622 C.ar    1  ZINC001193456967    0.0300
      3 C3         -2.2460    4.3921   51.8277 C.ar    1  ZINC001193456967   -0.1400
      4 C4         -1.1140    3.8747   51.2258 C.ar    1  ZINC001193456967    0.0300
      5 C5         -1.2017    2.7282   50.4590 C.ar    1  ZINC001193456967   -0.6900
      6 S6          0.2409    2.0690   49.6915 S.o2    1  ZINC001193456967    2.7100
      7 O7          1.2535    3.0568   49.8252 O.2     1  ZINC001193456967   -0.9300
      8 O8          0.3819    0.7407   50.1763 O.2     1  ZINC001193456967   -0.9400
      9 N9         -0.0794    1.9439   48.0716 N.am    1  ZINC001193456967   -1.0000
     10 C10        -1.1566    1.1381   47.4684 C.3     1  ZINC001193456967    0.1100
     11 C11        -0.6764    0.8521   46.0237 C.3     1  ZINC001193456967   -0.1200
     12 C12         0.0263    2.1865   45.6591 C.3     1  ZINC001193456967   -0.0500
     13 H13        -0.7005    2.9253   45.3212 H       1  ZINC001193456967    0.1000
     14 C14         1.0836    1.9626   44.6088 C.ar    1  ZINC001193456967   -0.0800
     15 C15         1.3323    2.9373   43.6604 C.ar    1  ZINC001193456967   -0.0800
     16 C16         2.3015    2.7331   42.6967 C.ar    1  ZINC001193456967   -0.1500
     17 C17         3.0241    1.5521   42.6816 C.ar    1  ZINC001193456967    0.1000
     18 F18         3.9722    1.3517   41.7403 F       1  ZINC001193456967   -0.1400
     19 C19         2.7744    0.5769   43.6322 C.ar    1  ZINC001193456967   -0.1500
     20 C20         1.8080    0.7853   44.5978 C.ar    1  ZINC001193456967   -0.0800
     21 C21         0.6594    2.6231   46.9971 C.3     1  ZINC001193456967    0.1900
     22 C22         0.5452    4.1405   47.1561 C.3     1  ZINC001193456967   -0.1800
     23 C23         2.1296    2.2017   47.0392 C.3     1  ZINC001193456967   -0.1800
     24 C24        -2.4214    2.0981   50.2945 C.ar    1  ZINC001193456967    0.0400
     25 C25        -3.5524    2.6132   50.8993 C.ar    1  ZINC001193456967   -0.0600
     26 N26        -4.8581    1.9388   50.7233 N.pl3   1  ZINC001193456967    0.0200
     27 O27        -5.6465    1.8866   51.6502 O.2     1  ZINC001193456967   -0.1400
     28 O28        -5.1442    1.4360   49.6514 O.2     1  ZINC001193456967   -0.1500
     29 H29        -4.8681    3.8225   53.2696 H       1  ZINC001193456967    0.1100
     30 H30        -4.5629    5.3943   52.4922 H       1  ZINC001193456967    0.0900
     31 H31        -5.5600    4.1722   51.6673 H       1  ZINC001193456967    0.0800
     32 H32        -2.1775    5.2880   52.4269 H       1  ZINC001193456967    0.1600
     33 H33        -0.1611    4.3666   51.3546 H       1  ZINC001193456967    0.1600
     34 H34        -1.2852    0.2052   48.0171 H       1  ZINC001193456967    0.0900
     35 H35        -2.0893    1.7020   47.4535 H       1  ZINC001193456967    0.0700
     36 H36         0.0287    0.0210   46.0036 H       1  ZINC001193456967    0.0900
     37 H37        -1.5212    0.6617   45.3616 H       1  ZINC001193456967    0.0900
     38 H38         0.7685    3.8584   43.6724 H       1  ZINC001193456967    0.1400
     39 H39         2.4952    3.4945   41.9555 H       1  ZINC001193456967    0.1400
     40 H40         3.3372   -0.3448   43.6211 H       1  ZINC001193456967    0.1400
     41 H41         1.6133    0.0248   45.3396 H       1  ZINC001193456967    0.1300
     42 H42        -0.5058    4.4289   47.1445 H       1  ZINC001193456967    0.0700
     43 H43         0.9941    4.4413   48.1028 H       1  ZINC001193456967    0.0600
     44 H44         1.0661    4.6321   46.3345 H       1  ZINC001193456967    0.0800
     45 H45         2.6429    2.5854   46.1574 H       1  ZINC001193456967    0.0800
     46 H46         2.5978    2.6057   47.9367 H       1  ZINC001193456967    0.0900
     47 H47         2.1954    1.1137   47.0532 H       1  ZINC001193456967    0.0700
     48 H48        -2.4898    1.2020   49.6956 H       1  ZINC001193456967    0.1600
@<TRIPOS>BOND
     1     1     2    1
     2     1    29    1
     3     1    30    1
     4     1    31    1
     5     2    25   ar
     6     2     3   ar
     7     3     4   ar
     8     3    32    1
     9     4     5   ar
    10     4    33    1
    11     5     6    1
    12     5    24   ar
    13     6     7    2
    14     6     8    2
    15     6     9   am
    16     9    21    1
    17     9    10    1
    18    10    11    1
    19    10    34    1
    20    10    35    1
    21    11    12    1
    22    11    36    1
    23    11    37    1
    24    12    13    1
    25    12    14    1
    26    12    21    1
    27    14    20   ar
    28    14    15   ar
    29    15    16   ar
    30    15    38    1
    31    16    17   ar
    32    16    39    1
    33    17    18    1
    34    17    19   ar
    35    19    20   ar
    36    19    40    1
    37    20    41    1
    38    21    22    1
    39    21    23    1
    40    22    42    1
    41    22    43    1
    42    22    44    1
    43    23    45    1
    44    23    46    1
    45    23    47    1
    46    24    25   ar
    47    24    48    1
    48    25    26    1
    49    26    27    2
    50    26    28    2
@<TRIPOS>SUBSTRUCTURE
     1 ZINC001193456967        1 TEMP              0 ****  ****    0 ROOT


##########                                Name:    ZINC001023407238
##########                DOCK_Rotatable_Bonds:                   7
##########                         Heavy_Atoms:                  25
##########                    Molecular_Weight:             349.387
##########                DOCK_Rotatable_Bonds:                   7
##########                       Formal_Charge:          -0.0300008
##########                     HBond_Acceptors:                   8
##########                        HBond_Donors:                   2
##########                         Heavy_Atoms:                  25
##########                          Grid_Score:          -26.073376
##########                     Grid_vdw_energy:          -26.716925
##########                      Grid_es_energy:            0.643549
##########           Internal_energy_repulsive:           24.971251

@<TRIPOS>MOLECULE
ZINC001023407238
 48 50 1 0 0
SMALL
USER_CHARGES


@<TRIPOS>ATOM
      1 C1          1.6904    1.5513   50.4966 C.3     1  ZINC001023407238   -0.0900
      2 C2          0.2632    2.0353   50.4938 C.2     1  ZINC001023407238   -0.1100
      3 C3         -0.7877    1.4832   49.7926 C.2     1  ZINC001023407238   -0.0500
      4 C4         -0.7217    0.3136   48.9099 C.2     1  ZINC001023407238    0.6100
      5 O5         -1.0501   -0.7818   49.3258 O.2     1  ZINC001023407238   -0.5100
      6 N6         -0.2974    0.4522   47.6382 N.am    1  ZINC001023407238   -0.6100
      7 C7         -0.1827   -0.6306   46.6503 C.3     1  ZINC001023407238    0.0800
      8 C8          0.3151    0.0015   45.3334 C.3     1  ZINC001023407238    0.0900
      9 H9          1.3966   -0.0985   45.2423 H       1  ZINC001023407238    0.0800
     10 O10        -0.3417   -0.5881   44.2096 O.3     1  ZINC001023407238   -0.5500
     11 C11        -0.0872    1.4919   45.4894 C.3     1  ZINC001023407238    0.1400
     12 H12        -1.1312    1.6455   45.2162 H       1  ZINC001023407238    0.1200
     13 N13         0.7921    2.3585   44.7006 N.am    1  ZINC001023407238   -0.7200
     14 C14         0.6838    3.6982   44.8002 C.2     1  ZINC001023407238    0.5200
     15 O15        -0.1426    4.1863   45.5417 O.2     1  ZINC001023407238   -0.5300
     16 C16         1.5895    4.5897   43.9902 C.3     1  ZINC001023407238   -0.1300
     17 C17         1.9504    3.8920   42.6773 C.3     1  ZINC001023407238   -0.1100
     18 H18         1.0614    3.7337   42.0666 H       1  ZINC001023407238    0.1100
     19 C19         3.0159    4.6981   41.9001 C.3     1  ZINC001023407238    0.0600
     20 O20         3.8413    3.6832   41.2555 O.3     1  ZINC001023407238   -0.3500
     21 C21         3.8701    2.5734   42.0070 C.2     1  ZINC001023407238    0.4800
     22 O22         4.7171    1.7140   41.9444 O.2     1  ZINC001023407238   -0.4600
     23 C23         2.6784    2.5560   42.9460 C.3     1  ZINC001023407238   -0.1800
     24 C24         0.1229    1.7158   47.0055 C.3     1  ZINC001023407238    0.1000
     25 N25        -1.9102    2.2293   50.0722 N.pl3   1  ZINC001023407238   -0.4200
     26 C26        -3.2516    1.9889   49.5346 C.3     1  ZINC001023407238    0.0700
     27 C27        -1.5678    3.2233   50.9275 C.2     1  ZINC001023407238    0.0100
     28 C28        -0.2459    3.1252   51.2065 C.2     1  ZINC001023407238   -0.2000
     29 H29         1.8235    0.8173   51.2914 H       1  ZINC001023407238    0.0600
     30 H30         1.9201    1.0916   49.5353 H       1  ZINC001023407238    0.0600
     31 H31         2.3598    2.3948   50.6652 H       1  ZINC001023407238    0.0700
     32 H32         0.5333   -1.3752   46.9979 H       1  ZINC001023407238    0.0800
     33 H33        -1.1567   -1.0943   46.4939 H       1  ZINC001023407238    0.0800
     34 H34        -0.8364    0.0420   43.6680 H       1  ZINC001023407238    0.3900
     35 H35         1.4523    1.9681   44.1068 H       1  ZINC001023407238    0.4100
     36 H36         1.0780    5.5277   43.7746 H       1  ZINC001023407238    0.1000
     37 H37         2.4990    4.7934   44.5554 H       1  ZINC001023407238    0.1100
     38 H38         2.5417    5.3341   41.1527 H       1  ZINC001023407238    0.1200
     39 H39         3.6152    5.2970   42.5858 H       1  ZINC001023407238    0.0800
     40 H40         3.0128    2.5104   43.9825 H       1  ZINC001023407238    0.1100
     41 H41         2.0285    1.7111   42.7186 H       1  ZINC001023407238    0.1200
     42 H42        -0.4944    2.5431   47.3560 H       1  ZINC001023407238    0.0900
     43 H43         1.1743    1.9091   47.2184 H       1  ZINC001023407238    0.0800
     44 H44        -3.8230    1.3855   50.2400 H       1  ZINC001023407238    0.0800
     45 H45        -3.7570    2.9421   49.3793 H       1  ZINC001023407238    0.0900
     46 H46        -3.1730    1.4603   48.5847 H       1  ZINC001023407238    0.0800
     47 H47        -2.2399    3.9695   51.3247 H       1  ZINC001023407238    0.1700
     48 H48         0.3165    3.7775   51.8583 H       1  ZINC001023407238    0.1400
@<TRIPOS>BOND
     1     1     2    1
     2     1    29    1
     3     1    30    1
     4     1    31    1
     5     2    28    1
     6     2     3    2
     7     3     4    1
     8     3    25    1
     9     4     5    2
    10     4     6   am
    11     6    24    1
    12     6     7    1
    13     7     8    1
    14     7    32    1
    15     7    33    1
    16     8     9    1
    17     8    10    1
    18     8    11    1
    19    10    34    1
    20    11    12    1
    21    11    13    1
    22    11    24    1
    23    13    14   am
    24    13    35    1
    25    14    15    2
    26    14    16    1
    27    16    17    1
    28    16    36    1
    29    16    37    1
    30    17    18    1
    31    17    23    1
    32    17    19    1
    33    19    20    1
    34    19    38    1
    35    19    39    1
    36    20    21    1
    37    21    22    2
    38    21    23    1
    39    23    40    1
    40    23    41    1
    41    24    42    1
    42    24    43    1
    43    25    26    1
    44    25    27    1
    45    26    44    1
    46    26    45    1
    47    26    46    1
    48    27    28    2
    49    27    47    1
    50    28    48    1
@<TRIPOS>SUBSTRUCTURE
     1 ZINC001023407238        1 TEMP              0 ****  ****    0 ROOT


##########                                Name:    ZINC000800038938
##########                DOCK_Rotatable_Bonds:                   6
##########                         Heavy_Atoms:                  25
##########                    Molecular_Weight:             386.274
##########                DOCK_Rotatable_Bonds:                   6
##########                       Formal_Charge:           0.0200003
##########                     HBond_Acceptors:                   7
##########                        HBond_Donors:                   0
##########                         Heavy_Atoms:                  25
##########                          Grid_Score:          -26.046499
##########                     Grid_vdw_energy:          -25.157053
##########                      Grid_es_energy:           -0.889447
##########           Internal_energy_repulsive:           19.362413

@<TRIPOS>MOLECULE
ZINC000800038938
 46 48 1 0 0
SMALL
USER_CHARGES


@<TRIPOS>ATOM
      1 C1        -11.0027   -0.9431   51.4752 C.3     1  ZINC000800038938    0.0300
      2 O2        -11.6379    0.3209   51.6776 O.3     1  ZINC000800038938   -0.3800
      3 C3        -11.2736    0.9654   52.8999 C.3     1  ZINC000800038938    0.0900
      4 H4        -11.3825    0.2723   53.7340 H       1  ZINC000800038938    0.0700
      5 C5        -12.1591    2.2081   53.1263 C.3     1  ZINC000800038938   -0.1400
      6 C6        -11.2010    3.2468   53.7605 C.3     1  ZINC000800038938   -0.1400
      7 C7         -9.8760    3.0004   52.9972 C.3     1  ZINC000800038938    0.0900
      8 H8         -9.8962    3.4976   52.0275 H       1  ZINC000800038938    0.0900
      9 O9         -8.7445    3.4631   53.7807 O.3     1  ZINC000800038938   -0.3500
     10 C10        -7.6047    3.7121   53.1169 C.2     1  ZINC000800038938    0.4500
     11 O11        -6.6326    4.1101   53.7139 O.2     1  ZINC000800038938   -0.4800
     12 C12        -7.5376    3.4953   51.6271 C.3     1  ZINC000800038938    0.1500
     13 H13        -8.0951    2.5983   51.3577 H       1  ZINC000800038938    0.1200
     14 C14        -8.1245    4.7187   50.8918 C.3     1  ZINC000800038938   -0.1200
     15 C15        -7.1864    4.8696   49.6650 C.3     1  ZINC000800038938   -0.1300
     16 C16        -5.8200    4.4550   50.2655 C.3     1  ZINC000800038938    0.0900
     17 N17        -6.1361    3.3588   51.2044 N.am    1  ZINC000800038938   -0.6000
     18 C18        -5.2808    2.3981   51.6068 C.2     1  ZINC000800038938    0.5800
     19 O19        -5.6514    1.5420   52.3862 O.2     1  ZINC000800038938   -0.4900
     20 C20        -3.8924    2.3857   51.1007 C.ar    1  ZINC000800038938   -0.1100
     21 C21        -3.5516    1.5864   50.0084 C.ar    1  ZINC000800038938   -0.0700
     22 C22        -2.2527    1.5795   49.5407 C.ar    1  ZINC000800038938   -0.0400
     23 Cl23       -1.8269    0.5864   48.1819 Cl      1  ZINC000800038938   -0.0500
     24 C24        -1.2887    2.3632   50.1527 C.ar    1  ZINC000800038938   -0.0700
     25 C25        -1.6194    3.1572   51.2356 C.ar    1  ZINC000800038938   -0.1000
     26 C26        -2.9163    3.1784   51.7099 C.ar    1  ZINC000800038938    0.0100
     27 Cl27       -3.3293    4.1758   53.0695 Cl      1  ZINC000800038938   -0.0300
     28 C28        -9.8215    1.4680   52.8183 C.3     1  ZINC000800038938   -0.1200
     29 H29       -11.3314   -1.3672   50.5264 H       1  ZINC000800038938    0.0900
     30 H30        -9.9213   -0.8076   51.4575 H       1  ZINC000800038938    0.0400
     31 H31       -11.2710   -1.6187   52.2876 H       1  ZINC000800038938    0.0400
     32 H32       -12.5481    2.5774   52.1773 H       1  ZINC000800038938    0.0800
     33 H33       -12.9757    1.9752   53.8097 H       1  ZINC000800038938    0.0800
     34 H34       -11.5626    4.2608   53.5894 H       1  ZINC000800038938    0.0800
     35 H35       -11.0744    3.0554   54.8260 H       1  ZINC000800038938    0.0800
     36 H36        -9.1481    4.5224   50.5727 H       1  ZINC000800038938    0.1000
     37 H37        -8.0796    5.6061   51.5231 H       1  ZINC000800038938    0.0900
     38 H38        -7.4816    4.1941   48.8621 H       1  ZINC000800038938    0.0900
     39 H39        -7.1627    5.9019   49.3161 H       1  ZINC000800038938    0.1000
     40 H40        -5.1528    4.0996   49.4803 H       1  ZINC000800038938    0.0900
     41 H41        -5.3691    5.2931   50.7970 H       1  ZINC000800038938    0.0800
     42 H42        -4.3022    0.9745   49.5304 H       1  ZINC000800038938    0.1500
     43 H43        -0.2741    2.3540   49.7827 H       1  ZINC000800038938    0.1500
     44 H44        -0.8626    3.7658   51.7085 H       1  ZINC000800038938    0.1500
     45 H45        -9.2251    1.0202   53.6132 H       1  ZINC000800038938    0.0900
     46 H46        -9.3949    1.2205   51.8463 H       1  ZINC000800038938    0.0900
@<TRIPOS>BOND
     1     1     2    1
     2     1    29    1
     3     1    30    1
     4     1    31    1
     5     2     3    1
     6     3     4    1
     7     3    28    1
     8     3     5    1
     9     5     6    1
    10     5    32    1
    11     5    33    1
    12     6     7    1
    13     6    34    1
    14     6    35    1
    15     7     8    1
    16     7     9    1
    17     7    28    1
    18     9    10    1
    19    10    11    2
    20    10    12    1
    21    12    13    1
    22    12    17    1
    23    12    14    1
    24    14    15    1
    25    14    36    1
    26    14    37    1
    27    15    16    1
    28    15    38    1
    29    15    39    1
    30    16    17    1
    31    16    40    1
    32    16    41    1
    33    17    18   am
    34    18    19    2
    35    18    20    1
    36    20    26   ar
    37    20    21   ar
    38    21    22   ar
    39    21    42    1
    40    22    23    1
    41    22    24   ar
    42    24    25   ar
    43    24    43    1
    44    25    26   ar
    45    25    44    1
    46    26    27    1
    47    28    45    1
    48    28    46    1
@<TRIPOS>SUBSTRUCTURE
     1 ZINC000800038938        1 TEMP              0 ****  ****    0 ROOT


##########                                Name:    ZINC000277311370
##########                DOCK_Rotatable_Bonds:                   5
##########                         Heavy_Atoms:                  17
##########                    Molecular_Weight:             361.036
##########                DOCK_Rotatable_Bonds:                   5
##########                       Formal_Charge:        -7.45058e-08
##########                     HBond_Acceptors:                   4
##########                        HBond_Donors:                   1
##########                         Heavy_Atoms:                  17
##########                          Grid_Score:          -26.043837
##########                     Grid_vdw_energy:          -25.351641
##########                      Grid_es_energy:           -0.692195
##########           Internal_energy_repulsive:            6.771856

@<TRIPOS>MOLECULE
ZINC000277311370
 28 28 1 0 0
SMALL
USER_CHARGES


@<TRIPOS>ATOM
      1 C1         -0.8995   -1.5108   48.7239 C.3     1  ZINC000277311370   -0.1500
      2 C2          0.2550   -0.5082   48.7799 C.3     1  ZINC000277311370   -0.1000
      3 C3          1.2406   -0.8017   47.6471 C.3     1  ZINC000277311370   -0.1600
      4 C4         -0.2942    0.9112   48.6232 C.3     1  ZINC000277311370    0.2500
      5 H5         -0.7578    1.0152   47.6421 H       1  ZINC000277311370    0.1400
      6 C6          0.8064    1.8802   48.7511 C.1     1  ZINC000277311370    0.1900
      7 N7          1.6558    2.6280   48.8498 N.1     1  ZINC000277311370   -0.4100
      8 N8         -1.2928    1.1660   49.6644 N.am    1  ZINC000277311370   -0.7000
      9 C9         -2.3028    2.0280   49.4331 C.2     1  ZINC000277311370    0.5700
     10 O10        -2.3860    2.5926   48.3602 O.2     1  ZINC000277311370   -0.4900
     11 C11        -3.3112    2.2870   50.4863 C.ar    1  ZINC000277311370    0.1100
     12 N12        -4.4213    1.5602   50.5279 N.ar    1  ZINC000277311370   -0.4300
     13 C13        -5.3416    1.7578   51.4472 C.ar    1  ZINC000277311370    0.1300
     14 Br14       -6.9007    0.6876   51.4510 Br      1  ZINC000277311370    0.0200
     15 C15        -5.1839    2.7401   52.4138 C.ar    1  ZINC000277311370   -0.1100
     16 C16        -4.0402    3.5218   52.4075 C.ar    1  ZINC000277311370   -0.0400
     17 C17        -3.0843    3.2881   51.4294 C.ar    1  ZINC000277311370   -0.0900
     18 Br18       -1.5021    4.3221   51.3684 Br      1  ZINC000277311370    0.0300
     19 H19        -0.5083   -2.5220   48.8355 H       1  ZINC000277311370    0.0700
     20 H20        -1.6017   -1.3016   49.5309 H       1  ZINC000277311370    0.0700
     21 H21        -1.4110   -1.4228   47.7654 H       1  ZINC000277311370    0.0600
     22 H22         0.7664   -0.5962   49.7384 H       1  ZINC000277311370    0.1000
     23 H23         0.7292   -0.7137   46.6886 H       1  ZINC000277311370    0.0600
     24 H24         2.0630   -0.0874   47.6869 H       1  ZINC000277311370    0.0600
     25 H25         1.6319   -1.8129   47.7587 H       1  ZINC000277311370    0.0700
     26 H26        -1.2271    0.7145   50.5204 H       1  ZINC000277311370    0.4200
     27 H27        -5.9453    2.8942   53.1639 H       1  ZINC000277311370    0.1600
     28 H28        -3.8942    4.2928   53.1495 H       1  ZINC000277311370    0.1700
@<TRIPOS>BOND
     1     1     2    1
     2     1    19    1
     3     1    20    1
     4     1    21    1
     5     2     3    1
     6     2     4    1
     7     2    22    1
     8     3    23    1
     9     3    24    1
    10     3    25    1
    11     4     5    1
    12     4     6    1
    13     4     8    1
    14     6     7    3
    15     8     9   am
    16     8    26    1
    17     9    10    2
    18     9    11    1
    19    11    17   ar
    20    11    12   ar
    21    12    13   ar
    22    13    14    1
    23    13    15   ar
    24    15    16   ar
    25    15    27    1
    26    16    17   ar
    27    16    28    1
    28    17    18    1
@<TRIPOS>SUBSTRUCTURE
     1 ZINC000277311370        1 TEMP              0 ****  ****    0 ROOT


##########                                Name:    ZINC000543429378
##########                DOCK_Rotatable_Bonds:                   6
##########                         Heavy_Atoms:                  29
##########                    Molecular_Weight:             406.408
##########                DOCK_Rotatable_Bonds:                   6
##########                       Formal_Charge:           0.0100003
##########                     HBond_Acceptors:                   9
##########                        HBond_Donors:                   1
##########                         Heavy_Atoms:                  29
##########                          Grid_Score:          -26.028210
##########                     Grid_vdw_energy:          -25.451521
##########                      Grid_es_energy:           -0.576690
##########           Internal_energy_repulsive:           42.829239

@<TRIPOS>MOLECULE
ZINC000543429378
 50 53 1 0 0
SMALL
USER_CHARGES


@<TRIPOS>ATOM
      1 O1        -13.6094   -0.4782   58.8038 O.2     1  ZINC000543429378   -0.5100
      2 C2        -13.4075   -1.6533   59.0260 C.2     1  ZINC000543429378    0.5200
      3 N3        -14.1197   -2.5944   58.3751 N.am    1  ZINC000543429378   -0.6600
      4 C4        -15.0959   -2.2156   57.4470 C.ar    1  ZINC000543429378    0.1900
      5 C5        -16.4209   -2.5834   57.6424 C.ar    1  ZINC000543429378   -0.1600
      6 C6        -17.3849   -2.2089   56.7261 C.ar    1  ZINC000543429378   -0.0600
      7 C7        -17.0338   -1.4684   55.6137 C.ar    1  ZINC000543429378   -0.2100
      8 C8        -15.7111   -1.0980   55.4135 C.ar    1  ZINC000543429378    0.1300
      9 O9        -15.3673   -0.3698   54.3188 O.3     1  ZINC000543429378   -0.3100
     10 C10       -16.4009   -0.0965   53.3706 C.3     1  ZINC000543429378    0.6000
     11 F11       -17.3972    0.6765   53.9765 F       1  ZINC000543429378   -0.1600
     12 F12       -15.8641    0.6029   52.2843 F       1  ZINC000543429378   -0.1300
     13 F13       -16.9532   -1.3011   52.9226 F       1  ZINC000543429378   -0.1600
     14 C14       -14.7423   -1.4669   56.3331 C.ar    1  ZINC000543429378   -0.1300
     15 C15       -12.3561   -2.0613   60.0256 C.3     1  ZINC000543429378    0.0700
     16 H16       -12.5952   -3.0421   60.4365 H       1  ZINC000543429378    0.1200
     17 C17       -12.2776   -1.0130   61.1691 C.3     1  ZINC000543429378   -0.1200
     18 C18       -10.7667   -0.9563   61.4422 C.3     1  ZINC000543429378   -0.1000
     19 H19       -10.4438   -1.8096   62.0386 H       1  ZINC000543429378    0.0900
     20 C20       -10.2644    0.3469   62.0401 C.3     1  ZINC000543429378   -0.1100
     21 C21        -8.7322    0.2534   62.1172 C.3     1  ZINC000543429378   -0.1200
     22 C22        -8.1173    0.0057   60.7429 C.3     1  ZINC000543429378   -0.1100
     23 C23        -8.7232   -1.2393   60.0739 C.3     1  ZINC000543429378   -0.0900
     24 C24       -10.2192   -1.0438   59.9916 C.3     1  ZINC000543429378    0.0700
     25 H25       -10.4313   -0.0989   59.4912 H       1  ZINC000543429378    0.0900
     26 N26       -11.0221   -2.0976   59.3713 N.3     1  ZINC000543429378   -0.4300
     27 C27       -11.1437   -1.8912   58.0081 C.ar    1  ZINC000543429378    0.5000
     28 N28       -11.0641   -0.6576   57.5313 N.ar    1  ZINC000543429378   -0.5300
     29 C29       -11.1757   -0.4257   56.2337 C.ar    1  ZINC000543429378    0.1800
     30 C30       -11.3781   -1.4919   55.3714 C.ar    1  ZINC000543429378   -0.2500
     31 C31       -11.4564   -2.7691   55.9039 C.ar    1  ZINC000543429378    0.1800
     32 N32       -11.3316   -2.9323   57.2106 N.ar    1  ZINC000543429378   -0.5300
     33 H33       -13.9555   -3.5342   58.5501 H       1  ZINC000543429378    0.4200
     34 H34       -16.6977   -3.1629   58.5107 H       1  ZINC000543429378    0.1400
     35 H35       -18.4146   -2.4959   56.8796 H       1  ZINC000543429378    0.1400
     36 H36       -17.7894   -1.1778   54.8989 H       1  ZINC000543429378    0.1400
     37 H37       -13.7127   -1.1795   56.1790 H       1  ZINC000543429378    0.1500
     38 H38       -12.6501   -0.0442   60.8362 H       1  ZINC000543429378    0.0800
     39 H39       -12.8203   -1.3558   62.0502 H       1  ZINC000543429378    0.0900
     40 H40       -10.5534    1.1829   61.4031 H       1  ZINC000543429378    0.0700
     41 H41       -10.6785    0.4804   63.0395 H       1  ZINC000543429378    0.0700
     42 H42        -8.3382    1.1861   62.5209 H       1  ZINC000543429378    0.0600
     43 H43        -8.4583   -0.5653   62.7826 H       1  ZINC000543429378    0.0600
     44 H44        -8.2978    0.8744   60.1097 H       1  ZINC000543429378    0.0600
     45 H45        -7.0423   -0.1362   60.8535 H       1  ZINC000543429378    0.0700
     46 H46        -8.3096   -1.3604   59.0727 H       1  ZINC000543429378    0.0700
     47 H47        -8.5089   -2.1238   60.6738 H       1  ZINC000543429378    0.0700
     48 H48       -11.1103    0.5820   55.8510 H       1  ZINC000543429378    0.1600
     49 H49       -11.4730   -1.3307   54.3077 H       1  ZINC000543429378    0.1400
     50 H50       -11.6139   -3.6213   55.2592 H       1  ZINC000543429378    0.1600
@<TRIPOS>BOND
     1     1     2    2
     2     2     3   am
     3     2    15    1
     4     3     4    1
     5     3    33    1
     6     4    14   ar
     7     4     5   ar
     8     5     6   ar
     9     5    34    1
    10     6     7   ar
    11     6    35    1
    12     7     8   ar
    13     7    36    1
    14     8     9    1
    15     8    14   ar
    16     9    10    1
    17    10    11    1
    18    10    12    1
    19    10    13    1
    20    14    37    1
    21    15    16    1
    22    15    26    1
    23    15    17    1
    24    17    18    1
    25    17    38    1
    26    17    39    1
    27    18    19    1
    28    18    24    1
    29    18    20    1
    30    20    21    1
    31    20    40    1
    32    20    41    1
    33    21    22    1
    34    21    42    1
    35    21    43    1
    36    22    23    1
    37    22    44    1
    38    22    45    1
    39    23    24    1
    40    23    46    1
    41    23    47    1
    42    24    25    1
    43    24    26    1
    44    26    27    1
    45    27    32   ar
    46    27    28   ar
    47    28    29   ar
    48    29    30   ar
    49    29    48    1
    50    30    31   ar
    51    30    49    1
    52    31    32   ar
    53    31    50    1
@<TRIPOS>SUBSTRUCTURE
     1 ZINC000543429378        1 TEMP              0 ****  ****    0 ROOT


##########                                Name:    ZINC001179023006
##########                DOCK_Rotatable_Bonds:                   3
##########                         Heavy_Atoms:                  25
##########                    Molecular_Weight:             340.465
##########                DOCK_Rotatable_Bonds:                   3
##########                       Formal_Charge:          -0.0100005
##########                     HBond_Acceptors:                   4
##########                        HBond_Donors:                   1
##########                         Heavy_Atoms:                  25
##########                          Grid_Score:          -25.988529
##########                     Grid_vdw_energy:          -25.748299
##########                      Grid_es_energy:           -0.240231
##########           Internal_energy_repulsive:           30.048912

@<TRIPOS>MOLECULE
ZINC001179023006
 53 56 1 0 0
SMALL
USER_CHARGES


@<TRIPOS>ATOM
      1 C1        -12.8160   -0.5034   55.5399 C.3     1  ZINC001179023006   -0.1500
      2 C2        -13.5835   -0.1163   56.8055 C.3     1  ZINC001179023006   -0.1100
      3 C3        -13.9173   -1.3771   57.6053 C.3     1  ZINC001179023006   -0.1100
      4 C4        -12.6970   -2.1910   57.9509 C.2     1  ZINC001179023006    0.5400
      5 O5        -12.4877   -3.2415   57.3821 O.2     1  ZINC001179023006   -0.5400
      6 N6        -11.8382   -1.7516   58.8921 N.am    1  ZINC001179023006   -0.5900
      7 C7        -12.0742   -0.4783   59.5859 C.3     1  ZINC001179023006    0.1000
      8 C8        -10.8260    0.3932   59.4672 C.3     1  ZINC001179023006   -0.1200
      9 C9         -9.6121   -0.3848   59.9955 C.3     1  ZINC001179023006   -0.0500
     10 C10        -9.4120   -1.6320   59.1219 C.3     1  ZINC001179023006   -0.1100
     11 C11       -10.6440   -2.5333   59.2406 C.3     1  ZINC001179023006    0.0900
     12 C12        -8.3758    0.4945   59.8934 C.3     1  ZINC001179023006   -0.0800
     13 C13        -8.5523    1.7853   60.6329 C.ar    1  ZINC001179023006   -0.0700
     14 C14        -8.7268    2.9539   59.8984 C.ar    1  ZINC001179023006   -0.1100
     15 C15        -8.9545    4.1500   60.5501 C.ar    1  ZINC001179023006   -0.1100
     16 C16        -9.0084    4.1917   61.9306 C.ar    1  ZINC001179023006   -0.1200
     17 C17        -8.8204    3.0303   62.6588 C.ar    1  ZINC001179023006   -0.1000
     18 C18        -8.5838    1.8398   61.9948 C.ar    1  ZINC001179023006   -0.1100
     19 C19        -8.3500    0.5768   62.7838 C.3     1  ZINC001179023006    0.1400
     20 N20        -9.3891   -0.4003   62.5456 N.am    1  ZINC001179023006   -0.7000
     21 C21        -9.8787   -0.8119   61.4044 C.2     1  ZINC001179023006    0.5200
     22 O22       -10.6975   -1.7005   61.5072 O.2     1  ZINC001179023006   -0.5500
     23 C23       -15.0599   -2.2077   56.9975 C.3     1  ZINC001179023006   -0.1200
     24 C24       -15.5549   -2.4327   58.4378 C.3     1  ZINC001179023006   -0.1400
     25 C25       -14.8451   -1.1186   58.8041 C.3     1  ZINC001179023006   -0.1300
     26 H26       -12.5447    0.3975   54.9896 H       1  ZINC001179023006    0.0600
     27 H27       -11.9122   -1.0471   55.8151 H       1  ZINC001179023006    0.0500
     28 H28       -13.4442   -1.1366   54.9133 H       1  ZINC001179023006    0.0600
     29 H29       -14.5064    0.3936   56.5291 H       1  ZINC001179023006    0.0700
     30 H30       -12.9696    0.5480   57.4138 H       1  ZINC001179023006    0.0700
     31 H31       -12.9208    0.0347   59.1298 H       1  ZINC001179023006    0.0900
     32 H32       -12.2842   -0.6692   60.6383 H       1  ZINC001179023006    0.0800
     33 H33       -10.9586    1.3028   60.0529 H       1  ZINC001179023006    0.0800
     34 H34       -10.6643    0.6539   58.4212 H       1  ZINC001179023006    0.0800
     35 H35        -8.5295   -2.1754   59.4595 H       1  ZINC001179023006    0.0800
     36 H36        -9.2792   -1.3319   58.0824 H       1  ZINC001179023006    0.0800
     37 H37       -10.7323   -2.8985   60.2638 H       1  ZINC001179023006    0.1200
     38 H38       -10.5470   -3.3765   58.5568 H       1  ZINC001179023006    0.0800
     39 H39        -7.5231   -0.0408   60.3112 H       1  ZINC001179023006    0.0800
     40 H40        -8.1786    0.7104   58.8433 H       1  ZINC001179023006    0.0900
     41 H41        -8.6845    2.9257   58.8196 H       1  ZINC001179023006    0.1200
     42 H42        -9.0906    5.0563   59.9788 H       1  ZINC001179023006    0.1200
     43 H43        -9.1966    5.1262   62.4382 H       1  ZINC001179023006    0.1300
     44 H44        -8.8577    3.0531   63.7379 H       1  ZINC001179023006    0.1300
     45 H45        -8.3271    0.8200   63.8461 H       1  ZINC001179023006    0.0900
     46 H46        -7.3885    0.1509   62.4968 H       1  ZINC001179023006    0.0800
     47 H47        -9.7751   -0.8045   63.3384 H       1  ZINC001179023006    0.4000
     48 H48       -15.7471   -1.6232   56.3859 H       1  ZINC001179023006    0.0900
     49 H49       -14.7223   -3.1189   56.5035 H       1  ZINC001179023006    0.0800
     50 H50       -15.1207   -3.3112   58.9150 H       1  ZINC001179023006    0.0800
     51 H51       -16.6389   -2.3870   58.5415 H       1  ZINC001179023006    0.0700
     52 H52       -14.3345   -1.1518   59.7666 H       1  ZINC001179023006    0.0700
     53 H53       -15.4736   -0.2356   58.6874 H       1  ZINC001179023006    0.0900
@<TRIPOS>BOND
     1     1     2    1
     2     1    26    1
     3     1    27    1
     4     1    28    1
     5     2     3    1
     6     2    29    1
     7     2    30    1
     8     3    25    1
     9     3     4    1
    10     3    23    1
    11     4     5    2
    12     4     6   am
    13     6    11    1
    14     6     7    1
    15     7     8    1
    16     7    31    1
    17     7    32    1
    18     8     9    1
    19     8    33    1
    20     8    34    1
    21     9    21    1
    22     9    10    1
    23     9    12    1
    24    10    11    1
    25    10    35    1
    26    10    36    1
    27    11    37    1
    28    11    38    1
    29    12    13    1
    30    12    39    1
    31    12    40    1
    32    13    18   ar
    33    13    14   ar
    34    14    15   ar
    35    14    41    1
    36    15    16   ar
    37    15    42    1
    38    16    17   ar
    39    16    43    1
    40    17    18   ar
    41    17    44    1
    42    18    19    1
    43    19    20    1
    44    19    45    1
    45    19    46    1
    46    20    21   am
    47    20    47    1
    48    21    22    2
    49    23    24    1
    50    23    48    1
    51    23    49    1
    52    24    25    1
    53    24    50    1
    54    24    51    1
    55    25    52    1
    56    25    53    1
@<TRIPOS>SUBSTRUCTURE
     1 ZINC001179023006        1 TEMP              0 ****  ****    0 ROOT


##########                                Name:    ZINC000826052721
##########                DOCK_Rotatable_Bonds:                   3
##########                         Heavy_Atoms:                  29
##########                    Molecular_Weight:             393.399
##########                DOCK_Rotatable_Bonds:                   3
##########                       Formal_Charge:        -4.47035e-07
##########                     HBond_Acceptors:                   9
##########                        HBond_Donors:                   2
##########                         Heavy_Atoms:                  29
##########                          Grid_Score:          -25.916386
##########                     Grid_vdw_energy:          -24.277700
##########                      Grid_es_energy:           -1.638685
##########           Internal_energy_repulsive:           11.669213

@<TRIPOS>MOLECULE
ZINC000826052721
 46 50 1 0 0
SMALL
USER_CHARGES


@<TRIPOS>ATOM
      1 C1        -10.8509    3.0160   57.0272 C.3     1  ZINC000826052721   -0.0400
      2 N2        -10.9366    1.6556   57.5749 N.4     1  ZINC000826052721   -0.3800
      3 H3        -11.5812    1.6441   58.3511 H       1  ZINC000826052721    0.4300
      4 C4         -9.6117    1.2260   58.0312 C.3     1  ZINC000826052721    0.0500
      5 C5         -9.6415   -0.2171   58.4603 C.ar    1  ZINC000826052721   -0.1300
      6 C6         -8.6200   -0.6890   59.2705 C.ar    1  ZINC000826052721   -0.1000
      7 C7         -8.6076   -2.0073   59.6809 C.ar    1  ZINC000826052721   -0.1000
      8 C8         -9.6180   -2.8623   59.2827 C.ar    1  ZINC000826052721   -0.0800
      9 C9        -10.6370   -2.3936   58.4770 C.ar    1  ZINC000826052721   -0.0800
     10 C10       -10.6506   -1.0703   58.0657 C.ar    1  ZINC000826052721   -0.1200
     11 C11       -11.7822   -0.5969   57.1896 C.3     1  ZINC000826052721    0.1100
     12 H12       -12.6772   -0.4592   57.7964 H       1  ZINC000826052721    0.1100
     13 N13       -12.0469   -1.5996   56.1493 N.3     1  ZINC000826052721   -0.6200
     14 C14       -13.0795   -1.1959   55.3233 C.ar    1  ZINC000826052721    0.1600
     15 C15       -14.4153   -1.3352   55.7156 C.ar    1  ZINC000826052721   -0.0400
     16 C16       -14.7494   -1.9210   57.0300 C.2     1  ZINC000826052721    0.0700
     17 N17       -14.1316   -2.9408   57.6308 N.2     1  ZINC000826052721   -0.3800
     18 N18       -14.7227   -3.1410   58.7590 N.2     1  ZINC000826052721   -0.1600
     19 N19       -15.6879   -2.2998   58.8885 N.2     1  ZINC000826052721   -0.1700
     20 N20       -15.7323   -1.5387   57.8488 N.pl3   1  ZINC000826052721   -0.3400
     21 C21       -15.4336   -0.9092   54.8509 C.ar    1  ZINC000826052721    0.1800
     22 N22       -15.1675   -0.3912   53.6782 N.ar    1  ZINC000826052721   -0.4700
     23 C23       -13.9107   -0.2352   53.2412 C.ar    1  ZINC000826052721    0.0900
     24 C24       -13.6531    0.3227   51.9757 C.ar    1  ZINC000826052721    0.1700
     25 F25       -14.6775    0.7102   51.1848 F       1  ZINC000826052721   -0.1100
     26 C26       -12.3661    0.4722   51.5503 C.ar    1  ZINC000826052721   -0.1900
     27 C27       -11.2954    0.0788   52.3511 C.ar    1  ZINC000826052721    0.1300
     28 F28       -10.0313    0.2390   51.9020 F       1  ZINC000826052721   -0.1300
     29 C29       -11.5093   -0.4669   53.5839 C.ar    1  ZINC000826052721   -0.1500
     30 C30       -12.8206   -0.6336   54.0511 C.ar    1  ZINC000826052721   -0.0600
     31 C31       -11.4050    0.7310   56.5316 C.3     1  ZINC000826052721    0.0000
     32 H32       -10.1570    3.0261   56.1865 H       1  ZINC000826052721    0.1200
     33 H33       -11.8369    3.3341   56.6883 H       1  ZINC000826052721    0.1300
     34 H34       -10.4952    3.6971   57.8002 H       1  ZINC000826052721    0.1200
     35 H35        -9.3034    1.8453   58.8736 H       1  ZINC000826052721    0.1400
     36 H36        -8.8956    1.3445   57.2179 H       1  ZINC000826052721    0.1400
     37 H37        -7.8301   -0.0218   59.5825 H       1  ZINC000826052721    0.1300
     38 H38        -7.8098   -2.3698   60.3121 H       1  ZINC000826052721    0.1300
     39 H39        -9.6108   -3.8942   59.6013 H       1  ZINC000826052721    0.1300
     40 H40       -11.4270   -3.0612   58.1664 H       1  ZINC000826052721    0.1400
     41 H41       -12.2419   -2.5015   56.5575 H       1  ZINC000826052721    0.4100
     42 H42       -16.4636   -1.0147   55.1583 H       1  ZINC000826052721    0.1800
     43 H43       -12.1736    0.9013   50.5781 H       1  ZINC000826052721    0.1600
     44 H44       -10.6725   -0.7690   54.1962 H       1  ZINC000826052721    0.1400
     45 H45       -10.6103    0.5661   55.8041 H       1  ZINC000826052721    0.1400
     46 H46       -12.2779    1.1540   56.0343 H       1  ZINC000826052721    0.1400
@<TRIPOS>BOND
     1     1     2    1
     2     1    32    1
     3     1    33    1
     4     1    34    1
     5     2     3    1
     6     2    31    1
     7     2     4    1
     8     4     5    1
     9     4    35    1
    10     4    36    1
    11     5    10   ar
    12     5     6   ar
    13     6     7   ar
    14     6    37    1
    15     7     8   ar
    16     7    38    1
    17     8     9   ar
    18     8    39    1
    19     9    10   ar
    20     9    40    1
    21    10    11    1
    22    11    12    1
    23    11    13    1
    24    11    31    1
    25    13    14    1
    26    13    41    1
    27    14    30   ar
    28    14    15   ar
    29    15    16    1
    30    15    21   ar
    31    16    20    1
    32    16    17    2
    33    17    18    1
    34    18    19    2
    35    19    20    1
    36    21    22   ar
    37    21    42    1
    38    22    23   ar
    39    23    30   ar
    40    23    24   ar
    41    24    25    1
    42    24    26   ar
    43    26    27   ar
    44    26    43    1
    45    27    28    1
    46    27    29   ar
    47    29    30   ar
    48    29    44    1
    49    31    45    1
    50    31    46    1
@<TRIPOS>SUBSTRUCTURE
     1 ZINC000826052721        1 TEMP              0 ****  ****    0 ROOT


##########                                Name:    ZINC000673213454
##########                DOCK_Rotatable_Bonds:                   7
##########                         Heavy_Atoms:                  26
##########                    Molecular_Weight:             360.453
##########                DOCK_Rotatable_Bonds:                   7
##########                       Formal_Charge:          -0.0100001
##########                     HBond_Acceptors:                   6
##########                        HBond_Donors:                   1
##########                         Heavy_Atoms:                  26
##########                          Grid_Score:          -25.872662
##########                     Grid_vdw_energy:          -26.118433
##########                      Grid_es_energy:            0.245771
##########           Internal_energy_repulsive:           18.292442

@<TRIPOS>MOLECULE
ZINC000673213454
 54 56 1 0 0
SMALL
USER_CHARGES


@<TRIPOS>ATOM
      1 C1         -8.3186   -0.8496   60.4642 C.3     1  ZINC000673213454   -0.1700
      2 C2         -9.3364   -0.1971   59.5264 C.3     1  ZINC000673213454    0.1400
      3 H3         -9.0858   -0.4388   58.4935 H       1  ZINC000673213454    0.0900
      4 C4         -9.3057    1.3207   59.7169 C.3     1  ZINC000673213454   -0.1200
      5 C5         -9.6285    2.0080   58.3887 C.3     1  ZINC000673213454   -0.1300
      6 H6        -10.5027    1.5503   57.9260 H       1  ZINC000673213454    0.0800
      7 C7         -8.4119    1.9402   57.4338 C.3     1  ZINC000673213454   -0.1500
      8 C8         -8.4245    3.3507   56.7913 C.3     1  ZINC000673213454    0.0500
      9 O9         -8.8290    4.2119   57.8772 O.3     1  ZINC000673213454   -0.3800
     10 C10        -9.8599    3.5163   58.6042 C.3     1  ZINC000673213454    0.0500
     11 N11       -10.6771   -0.7009   59.8343 N.am    1  ZINC000673213454   -0.6900
     12 C12       -11.0344   -1.9431   59.4524 C.2     1  ZINC000673213454    0.5100
     13 O13       -10.2449   -2.6448   58.8548 O.2     1  ZINC000673213454   -0.5100
     14 C14       -12.4027   -2.4564   59.7649 C.2     1  ZINC000673213454    0.5000
     15 O15       -12.7266   -2.6584   60.9168 O.2     1  ZINC000673213454   -0.5200
     16 N16       -13.2771   -2.6949   58.7674 N.am    1  ZINC000673213454   -0.5800
     17 C17       -14.6203   -3.2012   59.1069 C.3     1  ZINC000673213454    0.1100
     18 C18       -15.6998   -2.5105   58.2607 C.3     1  ZINC000673213454   -0.1700
     19 C19       -15.3692   -1.0384   58.1191 C.3     1  ZINC000673213454    0.0800
     20 O20       -14.5922   -0.8556   56.9427 O.3     1  ZINC000673213454   -0.3800
     21 C21       -13.2201   -0.9896   57.0085 C.3     1  ZINC000673213454    0.1500
     22 H22       -12.8235   -0.3036   57.7570 H       1  ZINC000673213454    0.0600
     23 C23       -12.6192   -0.6684   55.6643 C.ar    1  ZINC000673213454   -0.0800
     24 C24       -13.3625   -0.8515   54.5133 C.ar    1  ZINC000673213454   -0.0900
     25 C25       -12.8113   -0.5568   53.2803 C.ar    1  ZINC000673213454   -0.1300
     26 C26       -11.5168   -0.0789   53.1984 C.ar    1  ZINC000673213454   -0.1200
     27 C27       -10.7737    0.1050   54.3494 C.ar    1  ZINC000673213454   -0.1300
     28 C28       -11.3265   -0.1855   55.5827 C.ar    1  ZINC000673213454   -0.0900
     29 C29       -12.8635   -2.4383   57.4002 C.3     1  ZINC000673213454    0.0700
     30 H30        -8.5692   -0.6079   61.4971 H       1  ZINC000673213454    0.0600
     31 H31        -8.3405   -1.9309   60.3285 H       1  ZINC000673213454    0.0600
     32 H32        -7.3210   -0.4747   60.2352 H       1  ZINC000673213454    0.0700
     33 H33       -10.0455    1.6080   60.4641 H       1  ZINC000673213454    0.0800
     34 H34        -8.3140    1.6249   60.0518 H       1  ZINC000673213454    0.0900
     35 H35        -7.4894    1.7745   57.9903 H       1  ZINC000673213454    0.0800
     36 H36        -8.5530    1.1674   56.6783 H       1  ZINC000673213454    0.0800
     37 H37        -7.4293    3.6203   56.4378 H       1  ZINC000673213454    0.0900
     38 H38        -9.1473    3.3949   55.9766 H       1  ZINC000673213454    0.0600
     39 H39       -10.8400    3.8021   58.2225 H       1  ZINC000673213454    0.0600
     40 H40        -9.7896    3.7539   59.6656 H       1  ZINC000673213454    0.0900
     41 H41       -11.3077   -0.1406   60.3130 H       1  ZINC000673213454    0.4100
     42 H42       -14.6547   -4.2752   58.9238 H       1  ZINC000673213454    0.0800
     43 H43       -14.8176   -3.0126   60.1622 H       1  ZINC000673213454    0.0900
     44 H44       -15.7369   -2.9709   57.2735 H       1  ZINC000673213454    0.0800
     45 H45       -16.6684   -2.6196   58.7485 H       1  ZINC000673213454    0.0900
     46 H46       -16.2914   -0.4626   58.0410 H       1  ZINC000673213454    0.1000
     47 H47       -14.8007   -0.7063   58.9878 H       1  ZINC000673213454    0.0500
     48 H48       -14.3739   -1.2249   54.5773 H       1  ZINC000673213454    0.1300
     49 H49       -13.3918   -0.7005   52.3810 H       1  ZINC000673213454    0.1200
     50 H50       -11.0858    0.1506   52.2350 H       1  ZINC000673213454    0.1200
     51 H51        -9.7622    0.4781   54.2854 H       1  ZINC000673213454    0.1200
     52 H52       -10.7459   -0.0418   56.4820 H       1  ZINC000673213454    0.1300
     53 H53       -11.7864   -2.5826   57.3160 H       1  ZINC000673213454    0.1200
     54 H54       -13.3759   -3.1314   56.7330 H       1  ZINC000673213454    0.0800
@<TRIPOS>BOND
     1     1     2    1
     2     1    30    1
     3     1    31    1
     4     1    32    1
     5     2     3    1
     6     2     4    1
     7     2    11    1
     8     4     5    1
     9     4    33    1
    10     4    34    1
    11     5     6    1
    12     5    10    1
    13     5     7    1
    14     7     8    1
    15     7    35    1
    16     7    36    1
    17     8     9    1
    18     8    37    1
    19     8    38    1
    20     9    10    1
    21    10    39    1
    22    10    40    1
    23    11    12   am
    24    11    41    1
    25    12    13    2
    26    12    14    1
    27    14    15    2
    28    14    16   am
    29    16    29    1
    30    16    17    1
    31    17    18    1
    32    17    42    1
    33    17    43    1
    34    18    19    1
    35    18    44    1
    36    18    45    1
    37    19    20    1
    38    19    46    1
    39    19    47    1
    40    20    21    1
    41    21    22    1
    42    21    23    1
    43    21    29    1
    44    23    28   ar
    45    23    24   ar
    46    24    25   ar
    47    24    48    1
    48    25    26   ar
    49    25    49    1
    50    26    27   ar
    51    26    50    1
    52    27    28   ar
    53    27    51    1
    54    28    52    1
    55    29    53    1
    56    29    54    1
@<TRIPOS>SUBSTRUCTURE
     1 ZINC000673213454        1 TEMP              0 ****  ****    0 ROOT


##########                                Name:    ZINC000820901229
##########                DOCK_Rotatable_Bonds:                   3
##########                         Heavy_Atoms:                  18
##########                    Molecular_Weight:             331.233
##########                DOCK_Rotatable_Bonds:                   3
##########                       Formal_Charge:           0.0099999
##########                     HBond_Acceptors:                   5
##########                        HBond_Donors:                   1
##########                         Heavy_Atoms:                  18
##########                          Grid_Score:          -25.752916
##########                     Grid_vdw_energy:          -24.846512
##########                      Grid_es_energy:           -0.906404
##########           Internal_energy_repulsive:           19.309038

@<TRIPOS>MOLECULE
ZINC000820901229
 33 35 1 0 0
SMALL
USER_CHARGES


@<TRIPOS>ATOM
      1 O1         -3.1532    1.7874   48.7741 O.2     1  ZINC000820901229   -0.5300
      2 C2         -2.4679    2.4010   49.5699 C.2     1  ZINC000820901229    0.6000
      3 N3         -1.1702    2.6416   49.2968 N.am    1  ZINC000820901229   -0.7100
      4 C4         -0.5835    2.1590   48.0442 C.3     1  ZINC000820901229    0.1600
      5 H5          0.4747    2.4178   48.0066 H       1  ZINC000820901229    0.1000
      6 C6         -1.3179    2.7848   46.8475 C.3     1  ZINC000820901229   -0.1300
      7 C7         -0.7770    2.2574   45.5219 C.3     1  ZINC000820901229   -0.1100
      8 C8         -0.8210    0.7212   45.4694 C.3     1  ZINC000820901229   -0.1100
      9 C9         -0.0181    0.2061   46.6461 C.3     1  ZINC000820901229    0.0800
     10 H10         0.9827    0.6374   46.6247 H       1  ZINC000820901229    0.0700
     11 O11         0.0713   -1.2039   46.8168 O.3     1  ZINC000820901229   -0.3700
     12 C12         0.4913   -1.3955   48.1918 C.3     1  ZINC000820901229    0.0500
     13 C13        -0.0026   -0.1642   48.9948 C.3     1  ZINC000820901229   -0.1500
     14 C14        -0.7512    0.6532   47.9414 C.3     1  ZINC000820901229   -0.1400
     15 H15        -1.8054    0.3779   47.9141 H       1  ZINC000820901229    0.0900
     16 C16        -3.0575    2.8861   50.8290 C.2     1  ZINC000820901229    0.0100
     17 C17        -4.3357    2.6363   51.1908 C.2     1  ZINC000820901229   -0.2200
     18 S18        -4.6330    3.3658   52.7078 S.3     1  ZINC000820901229    0.3100
     19 C19        -3.0343    3.9626   52.7725 C.2     1  ZINC000820901229   -0.0100
     20 Br20       -2.3251    4.9913   54.1920 Br      1  ZINC000820901229    0.0700
     21 N21        -2.3773    3.6096   51.7231 N.2     1  ZINC000820901229   -0.4100
     22 H22        -0.6247    3.1344   49.9296 H       1  ZINC000820901229    0.4100
     23 H23        -2.3797    2.5489   46.9182 H       1  ZINC000820901229    0.0700
     24 H24        -1.1917    3.8670   46.8785 H       1  ZINC000820901229    0.0700
     25 H25        -1.3782    2.6593   44.7064 H       1  ZINC000820901229    0.0800
     26 H26         0.2541    2.5889   45.4002 H       1  ZINC000820901229    0.0700
     27 H27        -1.8525    0.3771   45.5455 H       1  ZINC000820901229    0.0700
     28 H28        -0.3795    0.3694   44.5371 H       1  ZINC000820901229    0.0800
     29 H29         0.0437   -2.3045   48.5935 H       1  ZINC000820901229    0.0900
     30 H30         1.5782   -1.4601   48.2425 H       1  ZINC000820901229    0.0600
     31 H31        -0.6788   -0.4708   49.7929 H       1  ZINC000820901229    0.0800
     32 H32         0.8408    0.3968   49.3973 H       1  ZINC000820901229    0.0800
     33 H33        -5.0522    2.0690   50.6152 H       1  ZINC000820901229    0.2000
@<TRIPOS>BOND
     1     1     2    2
     2     2     3   am
     3     2    16    1
     4     3     4    1
     5     3    22    1
     6     4     5    1
     7     4    14    1
     8     4     6    1
     9     6     7    1
    10     6    23    1
    11     6    24    1
    12     7     8    1
    13     7    25    1
    14     7    26    1
    15     8     9    1
    16     8    27    1
    17     8    28    1
    18     9    10    1
    19     9    14    1
    20     9    11    1
    21    11    12    1
    22    12    13    1
    23    12    29    1
    24    12    30    1
    25    13    14    1
    26    13    31    1
    27    13    32    1
    28    14    15    1
    29    16    21    1
    30    16    17    2
    31    17    18    1
    32    17    33    1
    33    18    19    1
    34    19    20    1
    35    19    21    2
@<TRIPOS>SUBSTRUCTURE
     1 ZINC000820901229        1 TEMP              0 ****  ****    0 ROOT


##########                                Name:    ZINC000373864439
##########                DOCK_Rotatable_Bonds:                   7
##########                         Heavy_Atoms:                  23
##########                    Molecular_Weight:              344.45
##########                DOCK_Rotatable_Bonds:                   7
##########                       Formal_Charge:          -0.0300001
##########                     HBond_Acceptors:                   7
##########                        HBond_Donors:                   1
##########                         Heavy_Atoms:                  23
##########                          Grid_Score:          -25.709408
##########                     Grid_vdw_energy:          -25.360874
##########                      Grid_es_energy:           -0.348534
##########           Internal_energy_repulsive:           22.984625

@<TRIPOS>MOLECULE
ZINC000373864439
 48 49 1 0 0
SMALL
USER_CHARGES


@<TRIPOS>ATOM
      1 C1         -6.6562    5.8000   49.2717 C.3     1  ZINC000373864439   -0.1500
      2 C2         -7.4403    4.5500   49.6766 C.3     1  ZINC000373864439   -0.6300
      3 S3         -6.4661    3.5827   50.8623 S.o2    1  ZINC000373864439    2.6100
      4 O4         -5.7190    4.4422   51.7123 O.2     1  ZINC000373864439   -0.9500
      5 O5         -7.2429    2.5191   51.3957 O.2     1  ZINC000373864439   -0.9600
      6 N6         -5.3200    2.8270   49.9362 N.am    1  ZINC000373864439   -1.1200
      7 C7         -4.3356    1.9433   50.5658 C.3     1  ZINC000373864439    0.1100
      8 C8         -2.9486    2.5838   50.4828 C.3     1  ZINC000373864439    0.0500
      9 N9         -2.2942    2.1744   49.2330 N.3     1  ZINC000373864439   -0.5300
     10 C10        -1.7558    0.8126   49.3425 C.3     1  ZINC000373864439    0.0400
     11 C11        -1.2127    0.3665   47.9830 C.3     1  ZINC000373864439   -0.1300
     12 C12        -0.1149    1.3350   47.5346 C.3     1  ZINC000373864439    0.1800
     13 F13         0.9438    1.2971   48.4485 F       1  ZINC000373864439   -0.2100
     14 C14         0.3834    0.9347   46.1698 C.ar    1  ZINC000373864439   -0.1500
     15 C15        -0.2605   -0.0627   45.4641 C.ar    1  ZINC000373864439   -0.0700
     16 C16         0.1966   -0.4308   44.2118 C.ar    1  ZINC000373864439   -0.1600
     17 C17         1.2984    0.1984   43.6631 C.ar    1  ZINC000373864439   -0.0700
     18 C18         1.9458    1.1971   44.3649 C.ar    1  ZINC000373864439   -0.2100
     19 C19         1.4861    1.5718   45.6188 C.ar    1  ZINC000373864439    0.1400
     20 O20         2.1211    2.5538   46.3112 O.3     1  ZINC000373864439   -0.3100
     21 C21         3.2478    3.1669   45.6815 C.3     1  ZINC000373864439    0.0200
     22 C22        -0.6891    2.7532   47.4754 C.3     1  ZINC000373864439   -0.1300
     23 C23        -1.2472    3.1301   48.8496 C.3     1  ZINC000373864439    0.0600
     24 H24        -5.7134    5.5042   48.8116 H       1  ZINC000373864439    0.0700
     25 H25        -7.2417    6.3811   48.5593 H       1  ZINC000373864439    0.0800
     26 H26        -6.4551    6.4049   50.1558 H       1  ZINC000373864439    0.0700
     27 H27        -8.3831    4.8457   50.1368 H       1  ZINC000373864439    0.1300
     28 H28        -7.6415    3.9450   48.7925 H       1  ZINC000373864439    0.1300
     29 H29        -5.3004    2.9695   48.9769 H       1  ZINC000373864439    0.4200
     30 H30        -4.6025    1.7886   51.6113 H       1  ZINC000373864439    0.0700
     31 H31        -4.3245    0.9843   50.0478 H       1  ZINC000373864439    0.0900
     32 H32        -3.0477    3.6691   50.5025 H       1  ZINC000373864439    0.0900
     33 H33        -2.3468    2.2584   51.3315 H       1  ZINC000373864439    0.0400
     34 H34        -0.9509    0.7982   50.0774 H       1  ZINC000373864439    0.0400
     35 H35        -2.5476    0.1332   49.6579 H       1  ZINC000373864439    0.0900
     36 H36        -0.7991   -0.6383   48.0682 H       1  ZINC000373864439    0.0800
     37 H37        -2.0201    0.3674   47.2506 H       1  ZINC000373864439    0.1000
     38 H38        -1.1215   -0.5559   45.8906 H       1  ZINC000373864439    0.1300
     39 H39        -0.3079   -1.2115   43.6619 H       1  ZINC000373864439    0.1300
     40 H40         1.6537   -0.0911   42.6852 H       1  ZINC000373864439    0.1300
     41 H41         2.8068    1.6881   43.9359 H       1  ZINC000373864439    0.1300
     42 H42         3.6605    3.9315   46.3397 H       1  ZINC000373864439    0.1000
     43 H43         4.0078    2.4114   45.4813 H       1  ZINC000373864439    0.0600
     44 H44         2.9351    3.6252   44.7434 H       1  ZINC000373864439    0.0600
     45 H45         0.0988    3.4536   47.1981 H       1  ZINC000373864439    0.0800
     46 H46        -1.4882    2.7916   46.7351 H       1  ZINC000373864439    0.1000
     47 H47        -1.6698    4.1340   48.8071 H       1  ZINC000373864439    0.0800
     48 H48        -0.4448    3.1050   49.5868 H       1  ZINC000373864439    0.0400
@<TRIPOS>BOND
     1     1     2    1
     2     1    24    1
     3     1    25    1
     4     1    26    1
     5     2     3    1
     6     2    27    1
     7     2    28    1
     8     3     4    2
     9     3     5    2
    10     3     6   am
    11     6     7    1
    12     6    29    1
    13     7     8    1
    14     7    30    1
    15     7    31    1
    16     8     9    1
    17     8    32    1
    18     8    33    1
    19     9    23    1
    20     9    10    1
    21    10    11    1
    22    10    34    1
    23    10    35    1
    24    11    12    1
    25    11    36    1
    26    11    37    1
    27    12    13    1
    28    12    14    1
    29    12    22    1
    30    14    19   ar
    31    14    15   ar
    32    15    16   ar
    33    15    38    1
    34    16    17   ar
    35    16    39    1
    36    17    18   ar
    37    17    40    1
    38    18    19   ar
    39    18    41    1
    40    19    20    1
    41    20    21    1
    42    21    42    1
    43    21    43    1
    44    21    44    1
    45    22    23    1
    46    22    45    1
    47    22    46    1
    48    23    47    1
    49    23    48    1
@<TRIPOS>SUBSTRUCTURE
     1 ZINC000373864439        1 TEMP              0 ****  ****    0 ROOT


##########                                Name:    ZINC000464752079
##########                DOCK_Rotatable_Bonds:                   7
##########                         Heavy_Atoms:                  29
##########                    Molecular_Weight:             404.413
##########                DOCK_Rotatable_Bonds:                   7
##########                       Formal_Charge:         7.45058e-08
##########                     HBond_Acceptors:                   8
##########                        HBond_Donors:                   1
##########                         Heavy_Atoms:                  29
##########                          Grid_Score:          -25.645296
##########                     Grid_vdw_energy:          -24.667433
##########                      Grid_es_energy:           -0.977864
##########           Internal_energy_repulsive:           16.651543

@<TRIPOS>MOLECULE
ZINC000464752079
 51 54 1 0 0
SMALL
USER_CHARGES


@<TRIPOS>ATOM
      1 C1        -17.9677   -0.1860   50.8691 C.3     1  ZINC000464752079   -0.1200
      2 C2        -17.2366    1.1298   50.9427 C.ar    1  ZINC000464752079   -0.0800
      3 C3        -17.8157    2.2069   51.5866 C.ar    1  ZINC000464752079   -0.1200
      4 C4        -17.1449    3.4141   51.6541 C.ar    1  ZINC000464752079   -0.1200
      5 C5        -15.8953    3.5436   51.0779 C.ar    1  ZINC000464752079   -0.1300
      6 C6        -15.3157    2.4658   50.4346 C.ar    1  ZINC000464752079   -0.0900
      7 C7        -15.9844    1.2577   50.3709 C.ar    1  ZINC000464752079   -0.0800
      8 C8        -15.3526    0.0830   49.6696 C.3     1  ZINC000464752079    0.2000
      9 H9        -15.7741   -0.8469   50.0515 H       1  ZINC000464752079    0.0900
     10 C10       -15.5981    0.1851   48.1495 C.3     1  ZINC000464752079   -0.1200
     11 C11       -14.2592   -0.3166   47.5468 C.3     1  ZINC000464752079   -0.1300
     12 C12       -13.2330    0.2317   48.5695 C.3     1  ZINC000464752079    0.1000
     13 N13       -13.8979    0.0970   49.8821 N.am    1  ZINC000464752079   -0.6300
     14 C14       -13.2737    0.0059   51.0731 C.2     1  ZINC000464752079    0.7200
     15 O15       -13.9250   -0.1033   52.0940 O.2     1  ZINC000464752079   -0.5700
     16 N16       -11.9276    0.0360   51.1325 N.am    1  ZINC000464752079   -0.7400
     17 C17       -11.2492   -0.0649   52.4270 C.3     1  ZINC000464752079    0.1900
     18 C18        -9.9336    0.6676   52.3630 C.ar    1  ZINC000464752079   -0.1200
     19 C19        -8.7776   -0.0171   52.0386 C.ar    1  ZINC000464752079   -0.0500
     20 C20        -7.5667    0.6531   51.9794 C.ar    1  ZINC000464752079    0.0100
     21 C21        -7.5148    2.0187   52.2468 C.ar    1  ZINC000464752079    0.0800
     22 C22        -8.6749    2.7031   52.5705 C.ar    1  ZINC000464752079   -0.1800
     23 C23        -9.8853    2.0289   52.6241 C.ar    1  ZINC000464752079    0.1400
     24 O24       -11.0241    2.7008   52.9415 O.3     1  ZINC000464752079   -0.3100
     25 C25       -11.5756    3.5538   51.9365 C.3     1  ZINC000464752079    0.4100
     26 F26       -12.8325    4.0088   52.3493 F       1  ZINC000464752079   -0.2000
     27 F27       -10.7266    4.6473   51.7355 F       1  ZINC000464752079   -0.2000
     28 O28        -6.2218    2.4387   52.1239 O.3     1  ZINC000464752079   -0.3000
     29 C29        -5.4218    1.2429   52.1799 C.3     1  ZINC000464752079    0.2100
     30 O30        -6.3050    0.2173   51.6888 O.3     1  ZINC000464752079   -0.3000
     31 H31       -17.7101   -0.7938   51.7365 H       1  ZINC000464752079    0.0700
     32 H32       -19.0424   -0.0045   50.8590 H       1  ZINC000464752079    0.0700
     33 H33       -17.6793   -0.7115   49.9587 H       1  ZINC000464752079    0.0700
     34 H34       -18.7921    2.1058   52.0368 H       1  ZINC000464752079    0.1200
     35 H35       -17.5978    4.2560   52.1567 H       1  ZINC000464752079    0.1200
     36 H36       -15.3717    4.4867   51.1301 H       1  ZINC000464752079    0.1200
     37 H37       -14.3395    2.5670   49.9841 H       1  ZINC000464752079    0.1100
     38 H38       -16.4228   -0.4606   47.8476 H       1  ZINC000464752079    0.0900
     39 H39       -15.7890    1.2180   47.8582 H       1  ZINC000464752079    0.0800
     40 H40       -14.2309   -1.4055   47.5104 H       1  ZINC000464752079    0.0800
     41 H41       -14.0916    0.1104   46.5579 H       1  ZINC000464752079    0.0900
     42 H42       -12.3195   -0.3624   48.5458 H       1  ZINC000464752079    0.0700
     43 H43       -13.0115    1.2783   48.3608 H       1  ZINC000464752079    0.0700
     44 H44       -11.4081    0.1242   50.3181 H       1  ZINC000464752079    0.4000
     45 H45       -11.8751    0.3796   53.2008 H       1  ZINC000464752079    0.0800
     46 H46       -11.0699   -1.1139   52.6626 H       1  ZINC000464752079    0.0800
     47 H47        -8.8183   -1.0763   51.8314 H       1  ZINC000464752079    0.1500
     48 H48        -8.6370    3.7623   52.7782 H       1  ZINC000464752079    0.1500
     49 H49       -11.6786    2.9977   51.0046 H       1  ZINC000464752079    0.1900
     50 H50        -4.5476    1.3364   51.5356 H       1  ZINC000464752079    0.1400
     51 H51        -5.1216    1.0307   53.2061 H       1  ZINC000464752079    0.0900
@<TRIPOS>BOND
     1     1     2    1
     2     1    31    1
     3     1    32    1
     4     1    33    1
     5     2     7   ar
     6     2     3   ar
     7     3     4   ar
     8     3    34    1
     9     4     5   ar
    10     4    35    1
    11     5     6   ar
    12     5    36    1
    13     6     7   ar
    14     6    37    1
    15     7     8    1
    16     8     9    1
    17     8    13    1
    18     8    10    1
    19    10    11    1
    20    10    38    1
    21    10    39    1
    22    11    12    1
    23    11    40    1
    24    11    41    1
    25    12    13    1
    26    12    42    1
    27    12    43    1
    28    13    14   am
    29    14    15    2
    30    14    16   am
    31    16    17    1
    32    16    44    1
    33    17    18    1
    34    17    45    1
    35    17    46    1
    36    18    23   ar
    37    18    19   ar
    38    19    20   ar
    39    19    47    1
    40    20    30    1
    41    20    21   ar
    42    21    22   ar
    43    21    28    1
    44    22    23   ar
    45    22    48    1
    46    23    24    1
    47    24    25    1
    48    25    26    1
    49    25    27    1
    50    25    49    1
    51    28    29    1
    52    29    30    1
    53    29    50    1
    54    29    51    1
@<TRIPOS>SUBSTRUCTURE
     1 ZINC000464752079        1 TEMP              0 ****  ****    0 ROOT


##########                                Name:    ZINC000302023461
##########                DOCK_Rotatable_Bonds:                   3
##########                         Heavy_Atoms:                  25
##########                    Molecular_Weight:             356.362
##########                DOCK_Rotatable_Bonds:                   3
##########                       Formal_Charge:        -2.08616e-07
##########                     HBond_Acceptors:                   9
##########                        HBond_Donors:                   1
##########                         Heavy_Atoms:                  25
##########                          Grid_Score:          -25.634413
##########                     Grid_vdw_energy:          -25.706659
##########                      Grid_es_energy:            0.072246
##########           Internal_energy_repulsive:           19.954998

@<TRIPOS>MOLECULE
ZINC000302023461
 37 40 1 0 0
SMALL
USER_CHARGES


@<TRIPOS>ATOM
      1 O1         -8.6923    1.5889   58.4719 O.2     1  ZINC000302023461   -0.1600
      2 N2         -9.1821    1.5656   57.3568 N.pl3   1  ZINC000302023461    0.0200
      3 O3         -9.1233    2.5522   56.6451 O.2     1  ZINC000302023461   -0.1300
      4 C4         -9.8433    0.3360   56.8646 C.ar    1  ZINC000302023461    0.0000
      5 C5         -9.9104   -0.7828   57.6706 C.ar    1  ZINC000302023461   -0.0600
      6 C6        -10.5281   -1.9321   57.2114 C.ar    1  ZINC000302023461   -0.0900
      7 C7        -11.0808   -1.9649   55.9442 C.ar    1  ZINC000302023461   -0.0800
      8 C8        -11.0175   -0.8495   55.1324 C.ar    1  ZINC000302023461   -0.0500
      9 C9        -10.4024    0.3084   55.5923 C.ar    1  ZINC000302023461   -0.1100
     10 S10       -10.3197    1.7341   54.5604 S.3     1  ZINC000302023461    0.1900
     11 C11        -9.0245    1.3342   53.4348 C.2     1  ZINC000302023461    0.2100
     12 N12        -9.0258    0.3201   52.6005 N.2     1  ZINC000302023461   -0.3200
     13 N13        -7.8126    0.3688   51.8949 N.pl3   1  ZINC000302023461   -0.4700
     14 C14        -7.1400    1.4430   52.3661 C.2     1  ZINC000302023461    0.3500
     15 C15        -5.8057    1.8984   51.9198 C.ar    1  ZINC000302023461   -0.0400
     16 C16        -5.1135    2.8617   52.6542 C.ar    1  ZINC000302023461   -0.0900
     17 C17        -3.8703    3.2859   52.2349 C.ar    1  ZINC000302023461   -0.1100
     18 C18        -3.3027    2.7582   51.0827 C.ar    1  ZINC000302023461    0.0800
     19 O19        -2.0785    3.1978   50.6829 O.3     1  ZINC000302023461   -0.3000
     20 C20        -1.3791    2.3829   49.7362 C.3     1  ZINC000302023461    0.0200
     21 C21        -2.3600    1.9879   48.6242 C.3     1  ZINC000302023461    0.0200
     22 O22        -3.4427    1.2636   49.2182 O.3     1  ZINC000302023461   -0.3000
     23 C23        -3.9870    1.7945   50.3474 C.ar    1  ZINC000302023461    0.0500
     24 C24        -5.2330    1.3618   50.7660 C.ar    1  ZINC000302023461   -0.0500
     25 N25        -7.8867    2.0165   53.2890 N.2     1  ZINC000302023461   -0.5000
     26 H26        -9.4798   -0.7607   58.6608 H       1  ZINC000302023461    0.1600
     27 H27       -10.5786   -2.8061   57.8438 H       1  ZINC000302023461    0.1500
     28 H28       -11.5624   -2.8639   55.5889 H       1  ZINC000302023461    0.1500
     29 H29       -11.4488   -0.8760   54.1426 H       1  ZINC000302023461    0.1600
     30 H30        -7.5158   -0.2465   51.2062 H       1  ZINC000302023461    0.4400
     31 H31        -5.5514    3.2753   53.5507 H       1  ZINC000302023461    0.1300
     32 H32        -3.3359    4.0318   52.8047 H       1  ZINC000302023461    0.1500
     33 H33        -0.5479    2.9451   49.3107 H       1  ZINC000302023461    0.1300
     34 H34        -1.0028    1.4868   50.2298 H       1  ZINC000302023461    0.0800
     35 H35        -2.7418    2.8842   48.1353 H       1  ZINC000302023461    0.0800
     36 H36        -1.8530    1.3576   47.8935 H       1  ZINC000302023461    0.1300
     37 H37        -5.7637    0.6123   50.1976 H       1  ZINC000302023461    0.1600
@<TRIPOS>BOND
     1     1     2    2
     2     2     3    2
     3     2     4    1
     4     4     9   ar
     5     4     5   ar
     6     5     6   ar
     7     5    26    1
     8     6     7   ar
     9     6    27    1
    10     7     8   ar
    11     7    28    1
    12     8     9   ar
    13     8    29    1
    14     9    10    1
    15    10    11    1
    16    11    25    1
    17    11    12    2
    18    12    13    1
    19    13    14    1
    20    13    30    1
    21    14    15    1
    22    14    25    2
    23    15    24   ar
    24    15    16   ar
    25    16    17   ar
    26    16    31    1
    27    17    18   ar
    28    17    32    1
    29    18    23   ar
    30    18    19    1
    31    19    20    1
    32    20    21    1
    33    20    33    1
    34    20    34    1
    35    21    22    1
    36    21    35    1
    37    21    36    1
    38    22    23    1
    39    23    24   ar
    40    24    37    1
@<TRIPOS>SUBSTRUCTURE
     1 ZINC000302023461        1 TEMP              0 ****  ****    0 ROOT


##########                                Name:    ZINC000618094467
##########                DOCK_Rotatable_Bonds:                   5
##########                         Heavy_Atoms:                  27
##########                    Molecular_Weight:             370.492
##########                DOCK_Rotatable_Bonds:                   5
##########                       Formal_Charge:                0.03
##########                     HBond_Acceptors:                   5
##########                        HBond_Donors:                   0
##########                         Heavy_Atoms:                  27
##########                          Grid_Score:          -25.608759
##########                     Grid_vdw_energy:          -24.892305
##########                      Grid_es_energy:           -0.716454
##########           Internal_energy_repulsive:          107.241859

@<TRIPOS>MOLECULE
ZINC000618094467
 57 59 1 0 0
SMALL
USER_CHARGES


@<TRIPOS>ATOM
      1 C1         -0.2682   -0.9606   47.0510 C.3     1  ZINC000618094467   -0.1500
      2 C2         -0.1927    0.4611   47.6111 C.3     1  ZINC000618094467   -0.1000
      3 C3         -0.1100    0.4042   49.1378 C.3     1  ZINC000618094467   -0.1100
      4 H4         -0.9959   -0.0941   49.5314 H       1  ZINC000618094467    0.1000
      5 C5          1.1398   -0.3754   49.5520 C.3     1  ZINC000618094467   -0.1500
      6 C6         -0.0343    1.8045   49.6894 C.2     1  ZINC000618094467    0.5200
      7 O7          1.0232    2.2415   50.0914 O.2     1  ZINC000618094467   -0.5000
      8 N8         -1.1416    2.5713   49.7359 N.am    1  ZINC000618094467   -0.6100
      9 C9         -2.4354    2.0724   49.2575 C.3     1  ZINC000618094467    0.1400
     10 C10        -3.5167    2.4386   50.2429 C.ar    1  ZINC000618094467   -0.1000
     11 C11        -4.7624    1.8466   50.0870 C.ar    1  ZINC000618094467   -0.1100
     12 C12        -5.7949    2.1495   50.9509 C.ar    1  ZINC000618094467   -0.1200
     13 C13        -5.5868    3.0503   51.9785 C.ar    1  ZINC000618094467   -0.1100
     14 C14        -4.3479    3.6361   52.1369 C.ar    1  ZINC000618094467   -0.1200
     15 C15        -3.3048    3.3285   51.2722 C.ar    1  ZINC000618094467   -0.0600
     16 C16        -1.9732    3.9857   51.5230 C.3     1  ZINC000618094467   -0.0800
     17 C17        -1.1025    3.9409   50.2746 C.3     1  ZINC000618094467    0.1200
     18 H18        -1.4897    4.6362   49.5298 H       1  ZINC000618094467    0.1000
     19 C19         0.3151    4.3103   50.6283 C.2     1  ZINC000618094467    0.5500
     20 O20         0.7916    3.9463   51.6825 O.2     1  ZINC000618094467   -0.5200
     21 N21         1.0533    5.0452   49.7731 N.am    1  ZINC000618094467   -0.6100
     22 C22         2.4376    5.4050   50.1065 C.3     1  ZINC000618094467    0.1200
     23 C23         3.3640    4.8787   49.0029 C.3     1  ZINC000618094467   -0.1600
     24 H24         4.3622    5.2974   49.1312 H       1  ZINC000618094467    0.1100
     25 C25         3.4330    3.3518   49.0730 C.3     1  ZINC000618094467   -0.1400
     26 C26         2.8017    5.3030   47.6640 C.2     1  ZINC000618094467    0.3700
     27 O27         3.4881    5.8915   46.8634 O.2     1  ZINC000618094467   -0.4400
     28 C28         1.3589    4.9716   47.3520 C.3     1  ZINC000618094467   -0.1600
     29 H29         1.2410    3.8916   47.2644 H       1  ZINC000618094467    0.1100
     30 C30         0.9483    5.6427   46.0398 C.3     1  ZINC000618094467   -0.1400
     31 C31         0.4847    5.4905   48.4943 C.3     1  ZINC000618094467    0.1400
     32 H32        -1.1539   -1.4596   47.4446 H       1  ZINC000618094467    0.0500
     33 H33        -0.3272   -0.9200   45.9634 H       1  ZINC000618094467    0.0600
     34 H34         0.6225   -1.5152   47.3462 H       1  ZINC000618094467    0.0600
     35 H35         0.6929    0.9601   47.2176 H       1  ZINC000618094467    0.0700
     36 H36        -1.0835    1.0156   47.3160 H       1  ZINC000618094467    0.0700
     37 H37         2.0115    0.0407   49.0471 H       1  ZINC000618094467    0.0700
     38 H38         1.2742   -0.2994   50.6311 H       1  ZINC000618094467    0.0700
     39 H39         1.0237   -1.4227   49.2732 H       1  ZINC000618094467    0.0700
     40 H40        -2.6608    2.5190   48.2891 H       1  ZINC000618094467    0.0900
     41 H41        -2.3905    0.9881   49.1546 H       1  ZINC000618094467    0.1100
     42 H42        -4.9250    1.1440   49.2830 H       1  ZINC000618094467    0.1300
     43 H43        -6.7617    1.6850   50.8247 H       1  ZINC000618094467    0.1300
     44 H44        -6.3920    3.2950   52.6554 H       1  ZINC000618094467    0.1200
     45 H45        -4.1876    4.3404   52.9398 H       1  ZINC000618094467    0.1200
     46 H46        -2.1347    5.0242   51.8120 H       1  ZINC000618094467    0.0900
     47 H47        -1.4629    3.4641   52.3328 H       1  ZINC000618094467    0.1000
     48 H48         2.5275    6.4892   50.1729 H       1  ZINC000618094467    0.0700
     49 H49         2.7126    4.9544   51.0602 H       1  ZINC000618094467    0.0900
     50 H50         2.4516    2.9331   48.8502 H       1  ZINC000618094467    0.0600
     51 H51         4.1574    2.9871   48.3448 H       1  ZINC000618094467    0.0600
     52 H52         3.7392    3.0475   50.0738 H       1  ZINC000618094467    0.0700
     53 H53         1.5849    5.2812   45.2322 H       1  ZINC000618094467    0.0700
     54 H54        -0.0915    5.4018   45.8183 H       1  ZINC000618094467    0.0700
     55 H55         1.0589    6.7229   46.1339 H       1  ZINC000618094467    0.0600
     56 H56        -0.5268    5.0988   48.3871 H       1  ZINC000618094467    0.1100
     57 H57         0.4614    6.5799   48.4708 H       1  ZINC000618094467    0.0700
@<TRIPOS>BOND
     1     1     2    1
     2     1    32    1
     3     1    33    1
     4     1    34    1
     5     2     3    1
     6     2    35    1
     7     2    36    1
     8     3     4    1
     9     3     5    1
    10     3     6    1
    11     5    37    1
    12     5    38    1
    13     5    39    1
    14     6     7    2
    15     6     8   am
    16     8    17    1
    17     8     9    1
    18     9    10    1
    19     9    40    1
    20     9    41    1
    21    10    15   ar
    22    10    11   ar
    23    11    12   ar
    24    11    42    1
    25    12    13   ar
    26    12    43    1
    27    13    14   ar
    28    13    44    1
    29    14    15   ar
    30    14    45    1
    31    15    16    1
    32    16    17    1
    33    16    46    1
    34    16    47    1
    35    17    18    1
    36    17    19    1
    37    19    20    2
    38    19    21   am
    39    21    31    1
    40    21    22    1
    41    22    23    1
    42    22    48    1
    43    22    49    1
    44    23    24    1
    45    23    25    1
    46    23    26    1
    47    25    50    1
    48    25    51    1
    49    25    52    1
    50    26    27    2
    51    26    28    1
    52    28    29    1
    53    28    30    1
    54    28    31    1
    55    30    53    1
    56    30    54    1
    57    30    55    1
    58    31    56    1
    59    31    57    1
@<TRIPOS>SUBSTRUCTURE
     1 ZINC000618094467        1 TEMP              0 ****  ****    0 ROOT


##########                                Name:    ZINC001199210165
##########                DOCK_Rotatable_Bonds:                   5
##########                         Heavy_Atoms:                  23
##########                    Molecular_Weight:             375.225
##########                DOCK_Rotatable_Bonds:                   5
##########                       Formal_Charge:         -0.00999999
##########                     HBond_Acceptors:                   6
##########                        HBond_Donors:                   2
##########                         Heavy_Atoms:                  23
##########                          Grid_Score:          -25.550652
##########                     Grid_vdw_energy:          -26.627764
##########                      Grid_es_energy:            1.077113
##########           Internal_energy_repulsive:            7.736072

@<TRIPOS>MOLECULE
ZINC001199210165
 38 40 1 0 0
SMALL
USER_CHARGES


@<TRIPOS>ATOM
      1 C1          1.0318    4.0062   42.8614 C.3     1  ZINC001199210165   -0.1700
      2 C2          1.1191    2.9385   43.9538 C.3     1  ZINC001199210165    0.0800
      3 C3          2.4771    3.0330   44.6520 C.3     1  ZINC001199210165   -0.1500
      4 O4          0.0769    3.1480   44.9089 O.3     1  ZINC001199210165   -0.3000
      5 C5         -0.2310    2.1070   45.7229 C.ar    1  ZINC001199210165    0.3300
      6 C6         -1.0748    2.3095   46.8066 C.ar    1  ZINC001199210165   -0.1300
      7 C7         -1.3823    1.2285   47.6352 C.ar    1  ZINC001199210165   -0.0600
      8 C8         -2.2782    1.3957   48.8028 C.2     1  ZINC001199210165    0.5700
      9 O9         -2.4988    0.4545   49.5392 O.2     1  ZINC001199210165   -0.4900
     10 N10        -2.8489    2.5917   49.0483 N.am    1  ZINC001199210165   -0.6600
     11 C11        -3.6946    2.7496   50.1504 C.ar    1  ZINC001199210165    0.2000
     12 C12        -4.9279    2.0966   50.1761 C.ar    1  ZINC001199210165   -0.1500
     13 C13        -5.7654    2.2385   51.2425 C.ar    1  ZINC001199210165   -0.0200
     14 C14        -5.3886    3.0450   52.3223 C.ar    1  ZINC001199210165   -0.1700
     15 C15        -6.0252    3.4062   53.5858 C.2     1  ZINC001199210165    0.0900
     16 Br16       -7.7210    2.8229   54.1859 Br      1  ZINC001199210165    0.0600
     17 N17        -5.2162    4.2016   54.2261 N.2     1  ZINC001199210165   -0.2100
     18 N18        -4.0545    4.4112   53.4758 N.pl3   1  ZINC001199210165   -0.4900
     19 C19        -4.1453    3.7071   52.3031 C.ar    1  ZINC001199210165    0.1500
     20 C20        -3.3004    3.5471   51.2092 C.ar    1  ZINC001199210165   -0.1700
     21 C21        -0.8214   -0.0175   47.3324 C.ar    1  ZINC001199210165   -0.1900
     22 C22         0.0081   -0.1322   46.2355 C.ar    1  ZINC001199210165    0.1400
     23 N23         0.2719    0.9103   45.4719 N.ar    1  ZINC001199210165   -0.5200
     24 H24         1.1423    4.9939   43.3091 H       1  ZINC001199210165    0.0600
     25 H25         1.8267    3.8465   42.1329 H       1  ZINC001199210165    0.0700
     26 H26         0.0643    3.9390   42.3641 H       1  ZINC001199210165    0.0600
     27 H27         1.0086    1.9509   43.5062 H       1  ZINC001199210165    0.0900
     28 H28         2.5877    4.0208   45.0997 H       1  ZINC001199210165    0.0700
     29 H29         2.5393    2.2723   45.4303 H       1  ZINC001199210165    0.0600
     30 H30         3.2721    2.8733   43.9236 H       1  ZINC001199210165    0.0800
     31 H31        -1.4867    3.2879   47.0059 H       1  ZINC001199210165    0.1600
     32 H32        -2.6729    3.3430   48.4605 H       1  ZINC001199210165    0.4100
     33 H33        -5.2215    1.4738   49.3440 H       1  ZINC001199210165    0.1500
     34 H34        -6.7180    1.7298   51.2537 H       1  ZINC001199210165    0.1400
     35 H35        -3.3047    4.9657   53.7427 H       1  ZINC001199210165    0.4500
     36 H36        -2.3427    4.0458   51.1858 H       1  ZINC001199210165    0.1400
     37 H37        -1.0348   -0.8779   47.9494 H       1  ZINC001199210165    0.1400
     38 H38         0.4445   -1.0907   45.9964 H       1  ZINC001199210165    0.1700
@<TRIPOS>BOND
     1     1     2    1
     2     1    24    1
     3     1    25    1
     4     1    26    1
     5     2     3    1
     6     2     4    1
     7     2    27    1
     8     3    28    1
     9     3    29    1
    10     3    30    1
    11     4     5    1
    12     5    23   ar
    13     5     6   ar
    14     6     7   ar
    15     6    31    1
    16     7     8    1
    17     7    21   ar
    18     8     9    2
    19     8    10   am
    20    10    11    1
    21    10    32    1
    22    11    20   ar
    23    11    12   ar
    24    12    13   ar
    25    12    33    1
    26    13    14   ar
    27    13    34    1
    28    14    19   ar
    29    14    15    1
    30    15    16    1
    31    15    17    2
    32    17    18    1
    33    18    19    1
    34    18    35    1
    35    19    20   ar
    36    20    36    1
    37    21    22   ar
    38    21    37    1
    39    22    23   ar
    40    22    38    1
@<TRIPOS>SUBSTRUCTURE
     1 ZINC001199210165        1 TEMP              0 ****  ****    0 ROOT


##########                                Name:    ZINC000281257088
##########                DOCK_Rotatable_Bonds:                   8
##########                         Heavy_Atoms:                  27
##########                    Molecular_Weight:             395.541
##########                DOCK_Rotatable_Bonds:                   8
##########                       Formal_Charge:          -0.0200005
##########                     HBond_Acceptors:                   7
##########                        HBond_Donors:                   1
##########                         Heavy_Atoms:                  27
##########                          Grid_Score:          -25.532871
##########                     Grid_vdw_energy:          -25.235516
##########                      Grid_es_energy:           -0.297355
##########           Internal_energy_repulsive:           23.570404

@<TRIPOS>MOLECULE
ZINC000281257088
 57 58 1 0 0
SMALL
USER_CHARGES


@<TRIPOS>ATOM
      1 C1        -14.2833   -0.9622   55.9789 C.3     1  ZINC000281257088   -0.0700
      2 C2        -13.5270   -0.7335   54.6957 C.2     1  ZINC000281257088    0.1000
      3 N3        -14.0577   -0.4743   53.5282 N.2     1  ZINC000281257088   -0.3000
      4 N4        -13.0200   -0.3286   52.5985 N.pl3   1  ZINC000281257088   -0.3700
      5 C5        -13.1761   -0.0324   51.1722 C.3     1  ZINC000281257088    0.1500
      6 C6        -12.9977    1.4694   50.9407 C.3     1  ZINC000281257088   -0.6400
      7 S7        -13.6112    1.9038   49.2898 S.o2    1  ZINC000281257088    2.4300
      8 C8        -13.0387    3.6163   49.1159 C.3     1  ZINC000281257088   -0.6500
      9 O9        -12.9368    1.1013   48.3305 O.2     1  ZINC000281257088   -0.9300
     10 O10       -15.0319    1.9024   49.3199 O.2     1  ZINC000281257088   -0.9300
     11 C11       -11.8514   -0.5092   53.2486 C.2     1  ZINC000281257088    0.0900
     12 C12       -10.4753   -0.4423   52.6378 C.3     1  ZINC000281257088   -0.1000
     13 C13       -12.1362   -0.7556   54.5483 C.2     1  ZINC000281257088   -0.2300
     14 C14       -11.1327   -1.0165   55.6418 C.3     1  ZINC000281257088    0.1400
     15 N15       -11.0425    0.1614   56.5149 N.3     1  ZINC000281257088   -0.6700
     16 C16       -10.3230   -0.1567   57.7555 C.3     1  ZINC000281257088    0.1400
     17 H17        -9.5326   -0.8766   57.5428 H       1  ZINC000281257088    0.0500
     18 C18       -11.2833   -0.7461   58.7562 C.ar    1  ZINC000281257088   -0.0800
     19 C19       -10.8492   -1.7140   59.6427 C.ar    1  ZINC000281257088   -0.0600
     20 C20       -11.7289   -2.2553   60.5610 C.ar    1  ZINC000281257088   -0.1600
     21 C21       -13.0453   -1.8275   60.5931 C.ar    1  ZINC000281257088    0.1000
     22 F22       -13.9060   -2.3556   61.4906 F       1  ZINC000281257088   -0.1400
     23 C23       -13.4788   -0.8577   59.7051 C.ar    1  ZINC000281257088   -0.1600
     24 C24       -12.5961   -0.3145   58.7910 C.ar    1  ZINC000281257088   -0.0900
     25 C25        -9.7080    1.1209   58.3303 C.3     1  ZINC000281257088   -0.0600
     26 C26       -10.8238    2.0770   58.7568 C.3     1  ZINC000281257088   -0.1400
     27 C27        -8.8451    0.7702   59.5442 C.3     1  ZINC000281257088   -0.1400
     28 C28        -8.8400    1.7932   57.2647 C.3     1  ZINC000281257088   -0.1500
     29 H29       -14.4282   -0.0104   56.4899 H       1  ZINC000281257088    0.0800
     30 H30       -15.2534   -1.4058   55.7549 H       1  ZINC000281257088    0.0700
     31 H31       -13.7152   -1.6361   56.6203 H       1  ZINC000281257088    0.0800
     32 H32       -12.4244   -0.5795   50.6031 H       1  ZINC000281257088    0.1100
     33 H33       -14.1709   -0.3348   50.8451 H       1  ZINC000281257088    0.1100
     34 H34       -13.5589    2.0223   51.6940 H       1  ZINC000281257088    0.1400
     35 H35       -11.9408    1.7255   51.0146 H       1  ZINC000281257088    0.1400
     36 H36       -11.9516    3.6451   49.1894 H       1  ZINC000281257088    0.1300
     37 H37       -13.3477    4.0060   48.1459 H       1  ZINC000281257088    0.1300
     38 H38       -13.4726    4.2267   49.9077 H       1  ZINC000281257088    0.1300
     39 H39       -10.1019    0.5801   52.6945 H       1  ZINC000281257088    0.0800
     40 H40        -9.8033   -1.1053   53.1828 H       1  ZINC000281257088    0.0900
     41 H41       -10.5254   -0.7535   51.5943 H       1  ZINC000281257088    0.0700
     42 H42       -11.4497   -1.8795   56.2275 H       1  ZINC000281257088    0.0800
     43 H43       -10.1568   -1.2164   55.1994 H       1  ZINC000281257088    0.0300
     44 H44       -10.6095    0.9356   56.0341 H       1  ZINC000281257088    0.3400
     45 H45        -9.8222   -2.0476   59.6175 H       1  ZINC000281257088    0.1400
     46 H46       -11.3896   -3.0120   61.2529 H       1  ZINC000281257088    0.1300
     47 H47       -14.5055   -0.5235   59.7291 H       1  ZINC000281257088    0.1300
     48 H48       -12.9340    0.4423   58.0984 H       1  ZINC000281257088    0.1300
     49 H49       -11.4421    1.5980   59.5159 H       1  ZINC000281257088    0.0600
     50 H50       -10.3856    2.9871   59.1663 H       1  ZINC000281257088    0.0500
     51 H51       -11.4385    2.3267   57.8920 H       1  ZINC000281257088    0.0600
     52 H52        -8.0503    0.0891   59.2403 H       1  ZINC000281257088    0.0500
     53 H53        -8.4069    1.6804   59.9536 H       1  ZINC000281257088    0.0600
     54 H54        -9.4636    0.2913   60.3033 H       1  ZINC000281257088    0.0600
     55 H55        -9.4680    2.1130   56.4332 H       1  ZINC000281257088    0.0500
     56 H56        -8.3403    2.6601   57.6970 H       1  ZINC000281257088    0.0600
     57 H57        -8.0933    1.0854   56.9047 H       1  ZINC000281257088    0.0600
@<TRIPOS>BOND
     1     1     2    1
     2     1    29    1
     3     1    30    1
     4     1    31    1
     5     2    13    1
     6     2     3    2
     7     3     4    1
     8     4     5    1
     9     4    11    1
    10     5     6    1
    11     5    32    1
    12     5    33    1
    13     6     7    1
    14     6    34    1
    15     6    35    1
    16     7     8    1
    17     7     9    2
    18     7    10    2
    19     8    36    1
    20     8    37    1
    21     8    38    1
    22    11    12    1
    23    11    13    2
    24    12    39    1
    25    12    40    1
    26    12    41    1
    27    13    14    1
    28    14    15    1
    29    14    42    1
    30    14    43    1
    31    15    16    1
    32    15    44    1
    33    16    17    1
    34    16    18    1
    35    16    25    1
    36    18    24   ar
    37    18    19   ar
    38    19    20   ar
    39    19    45    1
    40    20    21   ar
    41    20    46    1
    42    21    22    1
    43    21    23   ar
    44    23    24   ar
    45    23    47    1
    46    24    48    1
    47    25    26    1
    48    25    27    1
    49    25    28    1
    50    26    49    1
    51    26    50    1
    52    26    51    1
    53    27    52    1
    54    27    53    1
    55    27    54    1
    56    28    55    1
    57    28    56    1
    58    28    57    1
@<TRIPOS>SUBSTRUCTURE
     1 ZINC000281257088        1 TEMP              0 ****  ****    0 ROOT


##########                                Name:    ZINC001110536231
##########                DOCK_Rotatable_Bonds:                   8
##########                         Heavy_Atoms:                  24
##########                    Molecular_Weight:             329.442
##########                DOCK_Rotatable_Bonds:                   8
##########                       Formal_Charge:          -0.0400001
##########                     HBond_Acceptors:                   5
##########                        HBond_Donors:                   1
##########                         Heavy_Atoms:                  24
##########                          Grid_Score:          -25.496452
##########                     Grid_vdw_energy:          -24.823204
##########                      Grid_es_energy:           -0.673249
##########           Internal_energy_repulsive:           27.800592

@<TRIPOS>MOLECULE
ZINC001110536231
 51 53 1 0 0
SMALL
USER_CHARGES


@<TRIPOS>ATOM
      1 C1        -14.0744   -3.2694   56.9659 C.3     1  ZINC001110536231   -0.1300
      2 C2        -12.5881   -2.9159   57.0490 C.3     1  ZINC001110536231   -0.1000
      3 C3        -12.3221   -2.1602   58.3255 C.2     1  ZINC001110536231   -0.0200
      4 C4        -13.2131   -1.0106   58.7201 C.3     1  ZINC001110536231   -0.1300
      5 C5        -11.3012   -2.5078   59.1037 C.2     1  ZINC001110536231   -0.2400
      6 C6        -11.0417   -1.7701   60.3496 C.2     1  ZINC001110536231    0.5400
      7 O7        -11.8531   -1.8010   61.2549 O.2     1  ZINC001110536231   -0.5300
      8 N8         -9.9046   -1.0598   60.4878 N.am    1  ZINC001110536231   -0.7300
      9 C9         -9.6454   -0.3265   61.7293 C.3     1  ZINC001110536231    0.1100
     10 H10        -9.8423   -0.9586   62.5952 H       1  ZINC001110536231    0.1000
     11 C11       -10.5007    0.9627   61.7897 C.3     1  ZINC001110536231   -0.1600
     12 C12        -9.4389    2.1021   61.8450 C.3     1  ZINC001110536231    0.0500
     13 H13        -9.7892    3.0873   61.5370 H       1  ZINC001110536231    0.1200
     14 C14        -8.8334    2.0212   63.2789 C.3     1  ZINC001110536231   -0.1200
     15 C15        -7.9782    0.7311   63.2382 C.3     1  ZINC001110536231   -0.1100
     16 C16        -8.1797    0.2026   61.7581 C.3     1  ZINC001110536231    0.0400
     17 H17        -7.4107   -0.4780   61.3926 H       1  ZINC001110536231    0.1200
     18 N18        -8.3338    1.5070   61.0118 N.3     1  ZINC001110536231   -0.4900
     19 C19        -8.7662    1.2736   59.6274 C.3     1  ZINC001110536231    0.0600
     20 C20        -8.0886    2.2639   58.7158 C.ar    1  ZINC001110536231    0.0100
     21 C21        -7.7541    3.5323   59.1690 C.ar    1  ZINC001110536231   -0.2100
     22 C22        -7.1335    4.4155   58.3078 C.ar    1  ZINC001110536231    0.1400
     23 N23        -6.8570    4.0674   57.0656 N.ar    1  ZINC001110536231   -0.5400
     24 C24        -7.1601    2.8680   56.5972 C.ar    1  ZINC001110536231    0.3200
     25 O25        -6.8570    2.5520   55.3130 O.3     1  ZINC001110536231   -0.3100
     26 C26        -6.5577    3.6361   54.4314 C.3     1  ZINC001110536231    0.0400
     27 C27        -7.7805    1.9273   57.4088 C.ar    1  ZINC001110536231   -0.1700
     28 H28       -14.2667   -3.8160   56.0428 H       1  ZINC001110536231    0.0500
     29 H29       -14.3486   -3.8897   57.8193 H       1  ZINC001110536231    0.0700
     30 H30       -14.6667   -2.3545   56.9766 H       1  ZINC001110536231    0.0400
     31 H31       -11.9958   -3.8309   57.0384 H       1  ZINC001110536231    0.0900
     32 H32       -12.3139   -2.2956   56.1957 H       1  ZINC001110536231    0.0600
     33 H33       -14.0388   -1.3825   59.3268 H       1  ZINC001110536231    0.0800
     34 H34       -12.6374   -0.2855   59.2954 H       1  ZINC001110536231    0.0700
     35 H35       -13.6076   -0.5323   57.8236 H       1  ZINC001110536231    0.0700
     36 H36       -10.6626   -3.3316   58.8208 H       1  ZINC001110536231    0.1200
     37 H37        -9.2579   -1.0341   59.7653 H       1  ZINC001110536231    0.4000
     38 H38       -11.1176    1.0561   60.8959 H       1  ZINC001110536231    0.0700
     39 H39       -11.1195    0.9709   62.6869 H       1  ZINC001110536231    0.0800
     40 H40        -8.2075    2.8904   63.4807 H       1  ZINC001110536231    0.0700
     41 H41        -9.6235    1.9345   64.0247 H       1  ZINC001110536231    0.0700
     42 H42        -6.9283    0.9609   63.4201 H       1  ZINC001110536231    0.0800
     43 H43        -8.3444    0.0050   63.9640 H       1  ZINC001110536231    0.0700
     44 H44        -8.4964    0.2607   59.3283 H       1  ZINC001110536231    0.0900
     45 H45        -9.8470    1.3970   59.5585 H       1  ZINC001110536231    0.0700
     46 H46        -7.9771    3.8256   60.1842 H       1  ZINC001110536231    0.1300
     47 H47        -6.8713    5.4038   58.6554 H       1  ZINC001110536231    0.1600
     48 H48        -6.3337    3.2458   53.4386 H       1  ZINC001110536231    0.1000
     49 H49        -7.4163    4.3051   54.3736 H       1  ZINC001110536231    0.0600
     50 H50        -5.6948    4.1843   54.8095 H       1  ZINC001110536231    0.0600
     51 H51        -8.0263    0.9489   57.0233 H       1  ZINC001110536231    0.1400
@<TRIPOS>BOND
     1     1     2    1
     2     1    28    1
     3     1    29    1
     4     1    30    1
     5     2     3    1
     6     2    31    1
     7     2    32    1
     8     3     4    1
     9     3     5    2
    10     4    33    1
    11     4    34    1
    12     4    35    1
    13     5     6    1
    14     5    36    1
    15     6     7    2
    16     6     8   am
    17     8     9    1
    18     8    37    1
    19     9    10    1
    20     9    16    1
    21     9    11    1
    22    11    12    1
    23    11    38    1
    24    11    39    1
    25    12    13    1
    26    12    18    1
    27    12    14    1
    28    14    15    1
    29    14    40    1
    30    14    41    1
    31    15    16    1
    32    15    42    1
    33    15    43    1
    34    16    17    1
    35    16    18    1
    36    18    19    1
    37    19    20    1
    38    19    44    1
    39    19    45    1
    40    20    27   ar
    41    20    21   ar
    42    21    22   ar
    43    21    46    1
    44    22    23   ar
    45    22    47    1
    46    23    24   ar
    47    24    25    1
    48    24    27   ar
    49    25    26    1
    50    26    48    1
    51    26    49    1
    52    26    50    1
    53    27    51    1
@<TRIPOS>SUBSTRUCTURE
     1 ZINC001110536231        1 TEMP              0 ****  ****    0 ROOT


##########                                Name:    ZINC001039666729
##########                DOCK_Rotatable_Bonds:                   3
##########                         Heavy_Atoms:                  25
##########                    Molecular_Weight:             344.376
##########                DOCK_Rotatable_Bonds:                   3
##########                       Formal_Charge:          -0.0199998
##########                     HBond_Acceptors:                  10
##########                        HBond_Donors:                   2
##########                         Heavy_Atoms:                  25
##########                          Grid_Score:          -25.490471
##########                     Grid_vdw_energy:          -25.134975
##########                      Grid_es_energy:           -0.355495
##########           Internal_energy_repulsive:           24.582413

@<TRIPOS>MOLECULE
ZINC001039666729
 45 47 1 0 0
SMALL
USER_CHARGES


@<TRIPOS>ATOM
      1 C1        -10.2303    0.5577   62.2929 C.3     1  ZINC001039666729   -0.1100
      2 C2         -9.9606   -0.0860   60.9572 C.ar    1  ZINC001039666729    0.2200
      3 C3         -8.8522   -0.8990   60.7815 C.ar    1  ZINC001039666729   -0.3000
      4 C4         -8.6409   -1.4716   59.5369 C.ar    1  ZINC001039666729    0.1900
      5 N5         -9.4981   -1.2264   58.5599 N.ar    1  ZINC001039666729   -0.5800
      6 C6        -10.5485   -0.4440   58.7611 C.ar    1  ZINC001039666729    0.6000
      7 N7        -11.4258   -0.2091   57.7166 N.pl3   1  ZINC001039666729   -0.5900
      8 C8        -11.0388   -0.2825   56.2746 C.3     1  ZINC001039666729    0.1200
      9 C9        -11.0392   -1.7565   55.8635 C.3     1  ZINC001039666729    0.0900
     10 N10       -12.4193   -2.2829   56.0088 N.am    1  ZINC001039666729   -0.7400
     11 C11       -12.6461   -2.9647   57.1753 C.2     1  ZINC001039666729    0.5200
     12 O12       -11.7629   -3.1026   57.9949 O.2     1  ZINC001039666729   -0.5200
     13 C13       -14.0183   -3.5391   57.4172 C.3     1  ZINC001039666729   -0.1500
     14 C14       -14.6192   -2.9116   58.6766 C.3     1  ZINC001039666729    0.1100
     15 N15       -14.6328   -1.4359   58.5039 N.am    1  ZINC001039666729   -0.6100
     16 C16       -15.6584   -0.7804   57.9254 C.2     1  ZINC001039666729    0.6100
     17 O17       -15.6179    0.4288   57.8075 O.2     1  ZINC001039666729   -0.5200
     18 C18       -16.8326   -1.5318   57.4340 C.2     1  ZINC001039666729   -0.0400
     19 N19       -16.8340   -2.5611   56.6006 N.2     1  ZINC001039666729   -0.2500
     20 N20       -18.0501   -2.9369   56.4177 N.pl3   1  ZINC001039666729   -0.2300
     21 N21       -18.8664   -2.2069   57.0902 N.2     1  ZINC001039666729   -0.2800
     22 C22       -18.1854   -1.3074   57.7587 C.2     1  ZINC001039666729    0.0400
     23 C23       -13.4254   -0.7405   59.0204 C.3     1  ZINC001039666729    0.1100
     24 C24       -12.8670    0.1400   57.9055 C.3     1  ZINC001039666729    0.1300
     25 N25       -10.7821    0.1140   59.9396 N.ar    1  ZINC001039666729   -0.5700
     26 H26       -10.8463   -0.1068   62.8987 H       1  ZINC001039666729    0.0800
     27 H27        -9.2856    0.7437   62.8039 H       1  ZINC001039666729    0.0800
     28 H28       -10.7540    1.5017   62.1422 H       1  ZINC001039666729    0.0800
     29 H29        -8.1677   -1.0822   61.5965 H       1  ZINC001039666729    0.1400
     30 H30        -7.7865   -2.1098   59.3668 H       1  ZINC001039666729    0.1600
     31 H31       -11.7591    0.2692   55.6706 H       1  ZINC001039666729    0.0800
     32 H32       -10.0426    0.1384   56.1380 H       1  ZINC001039666729    0.0900
     33 H33       -10.7187   -1.8482   54.8258 H       1  ZINC001039666729    0.0800
     34 H34       -10.3626   -2.3176   56.5081 H       1  ZINC001039666729    0.1000
     35 H35       -13.1040   -2.1549   55.3337 H       1  ZINC001039666729    0.4100
     36 H36       -14.6588   -3.3222   56.5623 H       1  ZINC001039666729    0.0800
     37 H37       -13.9422   -4.6183   57.5497 H       1  ZINC001039666729    0.1100
     38 H38       -15.6374   -3.2742   58.8176 H       1  ZINC001039666729    0.1100
     39 H39       -14.0123   -3.1743   59.5432 H       1  ZINC001039666729    0.0900
     40 H40       -18.3163   -3.6744   55.8466 H       1  ZINC001039666729    0.4700
     41 H41       -18.5803   -0.5471   58.4163 H       1  ZINC001039666729    0.2100
     42 H42       -13.6953   -0.1246   59.8784 H       1  ZINC001039666729    0.0800
     43 H43       -12.6768   -1.4755   59.3163 H       1  ZINC001039666729    0.1200
     44 H44       -12.9542    1.1897   58.1859 H       1  ZINC001039666729    0.0700
     45 H45       -13.4158   -0.0425   56.9816 H       1  ZINC001039666729    0.0900
@<TRIPOS>BOND
     1     1     2    1
     2     1    26    1
     3     1    27    1
     4     1    28    1
     5     2    25   ar
     6     2     3   ar
     7     3     4   ar
     8     3    29    1
     9     4     5   ar
    10     4    30    1
    11     5     6   ar
    12     6     7    1
    13     6    25   ar
    14     7    24    1
    15     7     8    1
    16     8     9    1
    17     8    31    1
    18     8    32    1
    19     9    10    1
    20     9    33    1
    21     9    34    1
    22    10    11   am
    23    10    35    1
    24    11    12    2
    25    11    13    1
    26    13    14    1
    27    13    36    1
    28    13    37    1
    29    14    15    1
    30    14    38    1
    31    14    39    1
    32    15    16   am
    33    15    23    1
    34    16    17    2
    35    16    18    1
    36    18    22    1
    37    18    19    2
    38    19    20    1
    39    20    21    1
    40    20    40    1
    41    21    22    2
    42    22    41    1
    43    23    24    1
    44    23    42    1
    45    23    43    1
    46    24    44    1
    47    24    45    1
@<TRIPOS>SUBSTRUCTURE
     1 ZINC001039666729        1 TEMP              0 ****  ****    0 ROOT


##########                                Name:    ZINC000469391664
##########                DOCK_Rotatable_Bonds:                   6
##########                         Heavy_Atoms:                  29
##########                    Molecular_Weight:             408.524
##########                DOCK_Rotatable_Bonds:                   6
##########                       Formal_Charge:         -0.00999999
##########                     HBond_Acceptors:                   7
##########                        HBond_Donors:                   0
##########                         Heavy_Atoms:                  29
##########                          Grid_Score:          -25.484909
##########                     Grid_vdw_energy:          -24.402151
##########                      Grid_es_energy:           -1.082758
##########           Internal_energy_repulsive:           18.089758

@<TRIPOS>MOLECULE
ZINC000469391664
 53 56 1 0 0
SMALL
USER_CHARGES


@<TRIPOS>ATOM
      1 C1        -13.6460    3.3606   50.4431 C.3     1  ZINC000469391664   -0.1500
      2 C2        -13.5524    2.3784   51.6125 C.3     1  ZINC000469391664   -0.1000
      3 H3        -14.5340    2.2676   52.0732 H       1  ZINC000469391664    0.0800
      4 C4        -12.5603    2.9121   52.6484 C.3     1  ZINC000469391664   -0.1300
      5 C5        -12.4951    1.9435   53.8334 C.3     1  ZINC000469391664    0.1100
      6 N6        -12.1773    0.6004   53.3295 N.am    1  ZINC000469391664   -0.6100
      7 C7        -11.1376   -0.0938   53.8332 C.2     1  ZINC000469391664    0.5600
      8 O8        -10.8848   -1.2045   53.4076 O.2     1  ZINC000469391664   -0.5000
      9 C9        -10.3063    0.4939   54.9005 C.ar    1  ZINC000469391664   -0.1100
     10 C10        -9.3771    1.4918   54.5983 C.ar    1  ZINC000469391664   -0.0900
     11 C11        -8.6036    2.0373   55.6002 C.ar    1  ZINC000469391664   -0.1000
     12 C12        -8.7422    1.6004   56.9076 C.ar    1  ZINC000469391664   -0.0900
     13 C13        -9.6559    0.6145   57.2218 C.ar    1  ZINC000469391664   -0.1000
     14 C14       -10.4482    0.0577   56.2267 C.ar    1  ZINC000469391664    0.1500
     15 N15       -11.3701   -0.9364   56.5411 N.am    1  ZINC000469391664   -0.5800
     16 C16       -11.0264   -2.3456   56.3361 C.3     1  ZINC000469391664    0.0900
     17 C17       -12.5793   -0.6025   57.0342 C.2     1  ZINC000469391664    0.6100
     18 O18       -12.8648    0.5683   57.2044 O.2     1  ZINC000469391664   -0.5200
     19 C19       -13.5499   -1.6491   57.3652 C.2     1  ZINC000469391664   -0.2600
     20 C20       -14.6912   -1.9223   56.6643 C.2     1  ZINC000469391664   -0.0500
     21 C21       -15.4208   -2.9586   57.1966 C.2     1  ZINC000469391664   -0.1500
     22 C22       -14.8975   -3.5161   58.2949 C.2     1  ZINC000469391664   -0.2600
     23 S23       -13.4295   -2.7595   58.7231 S.3     1  ZINC000469391664    0.2300
     24 C24       -13.0146    0.0283   52.2665 C.3     1  ZINC000469391664    0.1000
     25 C25       -13.0737    1.0185   51.0990 C.3     1  ZINC000469391664    0.1300
     26 H26       -12.0813    1.1236   50.6605 H       1  ZINC000469391664    0.1000
     27 N27       -14.0068    0.5228   50.0841 N.pl3   1  ZINC000469391664   -0.4500
     28 C28       -13.6750   -0.0314   48.8773 C.2     1  ZINC000469391664   -0.0500
     29 C29       -14.8309   -0.3471   48.2626 C.2     1  ZINC000469391664   -0.0300
     30 N30       -15.8408    0.0049   49.0718 N.2     1  ZINC000469391664   -0.4900
     31 C31       -15.3547    0.5220   50.1670 C.2     1  ZINC000469391664    0.1800
     32 H32       -14.3530    2.9809   49.7055 H       1  ZINC000469391664    0.0600
     33 H33       -13.9874    4.3291   50.8087 H       1  ZINC000469391664    0.0600
     34 H34       -12.6645    3.4715   49.9824 H       1  ZINC000469391664    0.0600
     35 H35       -11.5729    2.9994   52.1952 H       1  ZINC000469391664    0.0700
     36 H36       -12.8893    3.8912   52.9966 H       1  ZINC000469391664    0.0900
     37 H37       -11.7190    2.2666   54.5272 H       1  ZINC000469391664    0.1000
     38 H38       -13.4585    1.9240   54.3430 H       1  ZINC000469391664    0.0800
     39 H39        -9.2647    1.8354   53.5807 H       1  ZINC000469391664    0.1400
     40 H40        -7.8857    2.8089   55.3649 H       1  ZINC000469391664    0.1400
     41 H41        -8.1313    2.0337   57.6858 H       1  ZINC000469391664    0.1400
     42 H42        -9.7578    0.2791   58.2433 H       1  ZINC000469391664    0.1400
     43 H43       -10.6474   -2.7664   57.2674 H       1  ZINC000469391664    0.0600
     44 H44       -11.9149   -2.8947   56.0242 H       1  ZINC000469391664    0.0900
     45 H45       -10.2611   -2.4242   55.5640 H       1  ZINC000469391664    0.0700
     46 H46       -14.9901   -1.3781   55.7807 H       1  ZINC000469391664    0.1500
     47 H47       -16.3488   -3.2979   56.7604 H       1  ZINC000469391664    0.1400
     48 H48       -15.3430   -4.3381   58.8356 H       1  ZINC000469391664    0.1600
     49 H49       -12.5814   -0.9122   51.9262 H       1  ZINC000469391664    0.1000
     50 H50       -14.0204   -0.1473   52.6481 H       1  ZINC000469391664    0.0800
     51 H51       -12.6779   -0.1856   48.4921 H       1  ZINC000469391664    0.1700
     52 H52       -14.9275   -0.8035   47.2885 H       1  ZINC000469391664    0.1700
     53 H53       -15.9344    0.8939   50.9989 H       1  ZINC000469391664    0.2000
@<TRIPOS>BOND
     1     1     2    1
     2     1    32    1
     3     1    33    1
     4     1    34    1
     5     2     3    1
     6     2    25    1
     7     2     4    1
     8     4     5    1
     9     4    35    1
    10     4    36    1
    11     5     6    1
    12     5    37    1
    13     5    38    1
    14     6     7   am
    15     6    24    1
    16     7     8    2
    17     7     9    1
    18     9    14   ar
    19     9    10   ar
    20    10    11   ar
    21    10    39    1
    22    11    12   ar
    23    11    40    1
    24    12    13   ar
    25    12    41    1
    26    13    14   ar
    27    13    42    1
    28    14    15    1
    29    15    16    1
    30    15    17   am
    31    16    43    1
    32    16    44    1
    33    16    45    1
    34    17    18    2
    35    17    19    1
    36    19    23    1
    37    19    20    2
    38    20    21    1
    39    20    46    1
    40    21    22    2
    41    21    47    1
    42    22    23    1
    43    22    48    1
    44    24    25    1
    45    24    49    1
    46    24    50    1
    47    25    26    1
    48    25    27    1
    49    27    31    1
    50    27    28    1
    51    28    29    2
    52    28    51    1
    53    29    30    1
    54    29    52    1
    55    30    31    2
    56    31    53    1
@<TRIPOS>SUBSTRUCTURE
     1 ZINC000469391664        1 TEMP              0 ****  ****    0 ROOT


##########                                Name:    ZINC000364058410
##########                DOCK_Rotatable_Bonds:                   5
##########                         Heavy_Atoms:                  25
##########                    Molecular_Weight:             358.464
##########                DOCK_Rotatable_Bonds:                   5
##########                       Formal_Charge:           0.0100002
##########                     HBond_Acceptors:                   7
##########                        HBond_Donors:                   0
##########                         Heavy_Atoms:                  25
##########                          Grid_Score:          -25.440458
##########                     Grid_vdw_energy:          -24.673332
##########                      Grid_es_energy:           -0.767126
##########           Internal_energy_repulsive:           60.665756

@<TRIPOS>MOLECULE
ZINC000364058410
 47 50 1 0 0
SMALL
USER_CHARGES


@<TRIPOS>ATOM
      1 C1         -3.2305    5.2704   53.8381 C.3     1  ZINC000364058410   -0.0700
      2 C2         -1.8757    4.8692   53.3140 C.2     1  ZINC000364058410   -0.2500
      3 C3         -1.3327    5.2525   52.1354 C.2     1  ZINC000364058410    0.0800
      4 N4         -0.1140    4.6809   52.0388 N.pl3   1  ZINC000364058410   -0.3600
      5 C5          0.8213    4.8291   50.9211 C.3     1  ZINC000364058410    0.1300
      6 C6          1.4056    3.4956   50.4208 C.3     1  ZINC000364058410    0.1100
      7 N7          0.2618    3.4594   49.4888 N.am    1  ZINC000364058410   -0.6500
      8 C8         -0.4004    2.4788   48.8437 C.2     1  ZINC000364058410    0.5600
      9 O9         -1.3316    2.7526   48.1165 O.2     1  ZINC000364058410   -0.5000
     10 C10         0.0161    1.0420   49.0261 C.3     1  ZINC000364058410    0.1400
     11 H11         0.5694    0.9376   49.9594 H       1  ZINC000364058410    0.0900
     12 C12        -1.2272    0.1477   49.0634 C.3     1  ZINC000364058410   -0.1200
     13 C13        -0.7941   -1.3195   49.1085 C.3     1  ZINC000364058410   -0.1200
     14 C14         0.0055   -1.6561   47.8477 C.3     1  ZINC000364058410   -0.1400
     15 C15         1.2627   -0.7822   47.7967 C.3     1  ZINC000364058410    0.1000
     16 N16         0.8658    0.6289   47.9009 N.am    1  ZINC000364058410   -0.6000
     17 C17         1.2693    1.5255   46.9790 C.2     1  ZINC000364058410    0.5900
     18 O18         0.9337    2.6913   47.0765 O.2     1  ZINC000364058410   -0.4900
     19 C19         2.1121    1.0966   45.8591 C.2     1  ZINC000364058410   -0.2600
     20 C20         3.4649    0.9111   45.9109 C.2     1  ZINC000364058410   -0.0600
     21 C21         4.0043    0.5057   44.7131 C.2     1  ZINC000364058410   -0.1400
     22 C22         3.1255    0.3637   43.7139 C.2     1  ZINC000364058410   -0.2400
     23 S23         1.5433    0.7312   44.2360 S.3     1  ZINC000364058410    0.2100
     24 C24         0.1344    4.9286   49.5470 C.3     1  ZINC000364058410    0.0900
     25 N25         0.0989    3.9213   53.1964 N.2     1  ZINC000364058410   -0.3000
     26 C26        -0.9551    4.0397   53.9627 C.2     1  ZINC000364058410    0.0500
     27 H27        -3.1381    6.1876   54.4197 H       1  ZINC000364058410    0.0600
     28 H28        -3.9089    5.4374   53.0015 H       1  ZINC000364058410    0.0600
     29 H29        -3.6245    4.4762   54.4724 H       1  ZINC000364058410    0.0600
     30 H30        -1.7923    5.8998   51.4031 H       1  ZINC000364058410    0.1700
     31 H31         1.5710    5.6013   51.0939 H       1  ZINC000364058410    0.1300
     32 H32         2.3718    3.5971   49.9267 H       1  ZINC000364058410    0.1100
     33 H33         1.3894    2.7013   51.1671 H       1  ZINC000364058410    0.0900
     34 H34        -1.8163    0.3805   49.9503 H       1  ZINC000364058410    0.0800
     35 H35        -1.8278    0.3224   48.1708 H       1  ZINC000364058410    0.0800
     36 H36        -0.1729   -1.4878   49.9882 H       1  ZINC000364058410    0.0700
     37 H37        -1.6766   -1.9572   49.1600 H       1  ZINC000364058410    0.0800
     38 H38         0.2937   -2.7071   47.8695 H       1  ZINC000364058410    0.0800
     39 H39        -0.6068   -1.4644   46.9666 H       1  ZINC000364058410    0.0700
     40 H40         1.9190   -1.0374   48.6287 H       1  ZINC000364058410    0.0800
     41 H41         1.7839   -0.9468   46.8537 H       1  ZINC000364058410    0.0900
     42 H42         4.0520    1.0676   46.8038 H       1  ZINC000364058410    0.1500
     43 H43         5.0601    0.3162   44.5876 H       1  ZINC000364058410    0.1500
     44 H44         3.3830    0.0538   42.7118 H       1  ZINC000364058410    0.1700
     45 H45        -0.8968    5.2786   49.5957 H       1  ZINC000364058410    0.0900
     46 H46         0.7271    5.4511   48.7962 H       1  ZINC000364058410    0.1100
     47 H47        -1.0934    3.5717   54.9260 H       1  ZINC000364058410    0.1800
@<TRIPOS>BOND
     1     1     2    1
     2     1    27    1
     3     1    28    1
     4     1    29    1
     5     2    26    1
     6     2     3    2
     7     3     4    1
     8     3    30    1
     9     4     5    1
    10     4    25    1
    11     5    24    1
    12     5     6    1
    13     5    31    1
    14     6     7    1
    15     6    32    1
    16     6    33    1
    17     7     8   am
    18     7    24    1
    19     8     9    2
    20     8    10    1
    21    10    11    1
    22    10    16    1
    23    10    12    1
    24    12    13    1
    25    12    34    1
    26    12    35    1
    27    13    14    1
    28    13    36    1
    29    13    37    1
    30    14    15    1
    31    14    38    1
    32    14    39    1
    33    15    16    1
    34    15    40    1
    35    15    41    1
    36    16    17   am
    37    17    18    2
    38    17    19    1
    39    19    23    1
    40    19    20    2
    41    20    21    1
    42    20    42    1
    43    21    22    2
    44    21    43    1
    45    22    23    1
    46    22    44    1
    47    24    45    1
    48    24    46    1
    49    25    26    2
    50    26    47    1
@<TRIPOS>SUBSTRUCTURE
     1 ZINC000364058410        1 TEMP              0 ****  ****    0 ROOT


##########                                Name:    ZINC000430767928
##########                DOCK_Rotatable_Bonds:                   4
##########                         Heavy_Atoms:                  25
##########                    Molecular_Weight:             358.505
##########                DOCK_Rotatable_Bonds:                   4
##########                       Formal_Charge:          -0.0100002
##########                     HBond_Acceptors:                   5
##########                        HBond_Donors:                   0
##########                         Heavy_Atoms:                  25
##########                          Grid_Score:          -25.422844
##########                     Grid_vdw_energy:          -24.939360
##########                      Grid_es_energy:           -0.483485
##########           Internal_energy_repulsive:           14.229912

@<TRIPOS>MOLECULE
ZINC000430767928
 51 55 1 0 0
SMALL
USER_CHARGES


@<TRIPOS>ATOM
      1 O1        -10.7748   -0.9779   57.2999 O.2     1  ZINC000430767928   -0.4600
      2 C2        -11.5612   -1.4645   58.0838 C.2     1  ZINC000430767928    0.5300
      3 C3        -12.6228   -2.4981   57.7942 C.3     1  ZINC000430767928    0.0400
      4 H4        -12.2080   -3.4876   57.6014 H       1  ZINC000430767928    0.1400
      5 C5        -13.5854   -2.0263   56.6850 C.3     1  ZINC000430767928   -0.1100
      6 C6        -14.9205   -2.6983   57.0962 C.3     1  ZINC000430767928   -0.1000
      7 H7        -15.0614   -3.6292   56.5470 H       1  ZINC000430767928    0.1000
      8 C8        -16.0938   -1.7495   56.8432 C.3     1  ZINC000430767928   -0.0800
      9 C9        -16.1225   -1.3565   55.3648 C.3     1  ZINC000430767928   -0.1100
     10 C10       -17.2958   -0.4077   55.1120 C.3     1  ZINC000430767928   -0.1200
     11 C11       -18.6059   -1.1076   55.4790 C.3     1  ZINC000430767928   -0.1200
     12 C12       -18.5773   -1.5006   56.9574 C.3     1  ZINC000430767928   -0.1200
     13 C13       -17.4039   -2.4494   57.2103 C.3     1  ZINC000430767928   -0.1200
     14 C14       -14.7726   -2.9827   58.6067 C.3     1  ZINC000430767928    0.1600
     15 N15       -13.4662   -2.4445   59.0212 N.am    1  ZINC000430767928   -0.6400
     16 C16       -12.6978   -1.8825   59.9598 C.2     1  ZINC000430767928    0.7400
     17 O17       -12.9098   -1.9609   61.1540 O.2     1  ZINC000430767928   -0.5100
     18 N18       -11.6711   -1.2018   59.4050 N.am    1  ZINC000430767928   -0.5800
     19 C19       -10.7924   -0.2883   60.1396 C.3     1  ZINC000430767928    0.2600
     20 H20       -10.2249    0.3170   59.4327 H       1  ZINC000430767928    0.1200
     21 C21       -11.6238    0.6114   61.0172 C.2     1  ZINC000430767928   -0.2100
     22 C22       -12.7166    1.2696   60.6276 C.2     1  ZINC000430767928   -0.1200
     23 C23       -13.3168    2.0372   61.6108 C.2     1  ZINC000430767928   -0.1400
     24 C24       -12.7113    2.0024   62.7988 C.2     1  ZINC000430767928   -0.2300
     25 S25       -11.3059    0.9483   62.7140 S.3     1  ZINC000430767928    0.1700
     26 C26        -9.8270   -1.0975   61.0080 C.3     1  ZINC000430767928   -0.1700
     27 C27        -8.4231   -1.3518   60.4551 C.3     1  ZINC000430767928   -0.1700
     28 C28        -8.6253   -0.3608   61.6032 C.3     1  ZINC000430767928   -0.1600
     29 H29       -13.6803   -0.9405   56.6902 H       1  ZINC000430767928    0.0800
     30 H30       -13.2566   -2.3830   55.7089 H       1  ZINC000430767928    0.1000
     31 H31       -15.9761   -0.8549   57.4548 H       1  ZINC000430767928    0.0700
     32 H32       -15.1891   -0.8578   55.1034 H       1  ZINC000430767928    0.0600
     33 H33       -16.2402   -2.2510   54.7534 H       1  ZINC000430767928    0.0700
     34 H34       -17.1780    0.4869   55.7235 H       1  ZINC000430767928    0.0600
     35 H35       -17.3161   -0.1277   54.0588 H       1  ZINC000430767928    0.0600
     36 H36       -19.4418   -0.4317   55.2989 H       1  ZINC000430767928    0.0600
     37 H37       -18.7236   -2.0022   54.8675 H       1  ZINC000430767928    0.0600
     38 H38       -18.4595   -0.6061   57.5690 H       1  ZINC000430767928    0.0600
     39 H39       -19.5106   -1.9993   57.2190 H       1  ZINC000430767928    0.0600
     40 H40       -17.5216   -3.3440   56.5988 H       1  ZINC000430767928    0.0700
     41 H41       -17.3836   -2.7293   58.2636 H       1  ZINC000430767928    0.0600
     42 H42       -15.5759   -2.4947   59.1587 H       1  ZINC000430767928    0.0900
     43 H43       -14.7939   -4.0573   58.7878 H       1  ZINC000430767928    0.0800
     44 H44       -13.1037    1.2083   59.6212 H       1  ZINC000430767928    0.1400
     45 H45       -14.2075    2.6203   61.4296 H       1  ZINC000430767928    0.1400
     46 H46       -13.0364    2.5370   63.6792 H       1  ZINC000430767928    0.1600
     47 H47       -10.2821   -1.8853   61.6083 H       1  ZINC000430767928    0.1200
     48 H48        -7.9545   -2.3071   60.6914 H       1  ZINC000430767928    0.1000
     49 H49        -8.1874   -0.9426   59.4728 H       1  ZINC000430767928    0.1000
     50 H50        -8.5225    0.7003   61.3761 H       1  ZINC000430767928    0.1000
     51 H51        -8.2896   -0.6643   62.5949 H       1  ZINC000430767928    0.1000
@<TRIPOS>BOND
     1     1     2    2
     2     2    18   am
     3     2     3    1
     4     3     4    1
     5     3    15    1
     6     3     5    1
     7     5     6    1
     8     5    29    1
     9     5    30    1
    10     6     7    1
    11     6     8    1
    12     6    14    1
    13     8    13    1
    14     8     9    1
    15     8    31    1
    16     9    10    1
    17     9    32    1
    18     9    33    1
    19    10    11    1
    20    10    34    1
    21    10    35    1
    22    11    12    1
    23    11    36    1
    24    11    37    1
    25    12    13    1
    26    12    38    1
    27    12    39    1
    28    13    40    1
    29    13    41    1
    30    14    15    1
    31    14    42    1
    32    14    43    1
    33    15    16   am
    34    16    17    2
    35    16    18   am
    36    18    19    1
    37    19    20    1
    38    19    21    1
    39    19    26    1
    40    21    25    1
    41    21    22    2
    42    22    23    1
    43    22    44    1
    44    23    24    2
    45    23    45    1
    46    24    25    1
    47    24    46    1
    48    26    28    1
    49    26    27    1
    50    26    47    1
    51    27    28    1
    52    27    48    1
    53    27    49    1
    54    28    50    1
    55    28    51    1
@<TRIPOS>SUBSTRUCTURE
     1 ZINC000430767928        1 TEMP              0 ****  ****    0 ROOT


##########                                Name:    ZINC000130059363
##########                DOCK_Rotatable_Bonds:                   4
##########                         Heavy_Atoms:                  29
##########                    Molecular_Weight:             389.497
##########                DOCK_Rotatable_Bonds:                   4
##########                       Formal_Charge:          -0.0100003
##########                     HBond_Acceptors:                   5
##########                        HBond_Donors:                   0
##########                         Heavy_Atoms:                  29
##########                          Grid_Score:          -25.422823
##########                     Grid_vdw_energy:          -24.412886
##########                      Grid_es_energy:           -1.009937
##########           Internal_energy_repulsive:           22.794794

@<TRIPOS>MOLECULE
ZINC000130059363
 56 60 1 0 0
SMALL
USER_CHARGES


@<TRIPOS>ATOM
      1 C1         -1.6749    3.8048   52.2304 C.3     1  ZINC000130059363   -0.1200
      2 C2         -0.2649    3.9735   52.7350 C.ar    1  ZINC000130059363    0.1900
      3 N3          0.0131    3.7029   53.9914 N.ar    1  ZINC000130059363   -0.4800
      4 C4          1.2406    3.8364   54.4803 C.ar    1  ZINC000130059363    0.2000
      5 C5          1.4996    3.5172   55.9044 C.ar    1  ZINC000130059363   -0.0600
      6 C6          0.5079    3.7309   56.8610 C.ar    1  ZINC000130059363   -0.1000
      7 C7          0.7546    3.4314   58.1852 C.ar    1  ZINC000130059363   -0.1200
      8 C8          1.9831    2.9207   58.5645 C.ar    1  ZINC000130059363   -0.1000
      9 C9          2.9710    2.7071   57.6200 C.ar    1  ZINC000130059363   -0.1300
     10 C10         2.7337    2.9969   56.2918 C.ar    1  ZINC000130059363   -0.0700
     11 C11         2.2894    4.2725   53.6709 C.ar    1  ZINC000130059363   -0.1800
     12 C12         2.0401    4.5674   52.3452 C.ar    1  ZINC000130059363   -0.0400
     13 C13         0.7339    4.4100   51.8619 C.ar    1  ZINC000130059363   -0.1900
     14 C14         0.4160    4.7118   50.4514 C.2     1  ZINC000130059363    0.5700
     15 O15         0.1611    5.8523   50.1163 O.2     1  ZINC000130059363   -0.5200
     16 N16         0.4085    3.7228   49.5358 N.am    1  ZINC000130059363   -0.6000
     17 C17         0.1004    4.0055   48.1267 C.3     1  ZINC000130059363    0.1000
     18 C18         1.2504    3.4768   47.2643 C.3     1  ZINC000130059363   -0.1500
     19 C19         1.4924    2.0033   47.5715 C.3     1  ZINC000130059363    0.1500
     20 H20         2.3379    1.6660   46.9720 H       1  ZINC000130059363    0.0700
     21 C21         1.8447    1.8046   49.0444 C.3     1  ZINC000130059363   -0.1100
     22 H22         2.7813    2.3113   49.2767 H       1  ZINC000130059363    0.1000
     23 C23         1.9836    0.2954   49.3002 C.3     1  ZINC000130059363   -0.1200
     24 C24         0.5995   -0.3430   49.1580 C.3     1  ZINC000130059363   -0.1400
     25 C25        -0.0575    0.1206   47.8901 C.2     1  ZINC000130059363    0.5200
     26 O26        -1.0015   -0.5131   47.4679 O.2     1  ZINC000130059363   -0.5400
     27 N27         0.3357    1.1958   47.2177 N.am    1  ZINC000130059363   -0.5700
     28 C28        -0.4227    1.5824   46.0253 C.3     1  ZINC000130059363    0.0700
     29 C29         0.3367    1.6594   44.6993 C.3     1  ZINC000130059363   -0.1800
     30 C30        -0.6457    0.5142   44.9528 C.3     1  ZINC000130059363   -0.1600
     31 C31         0.7138    2.3398   49.9224 C.3     1  ZINC000130059363    0.1100
     32 H32        -1.7793    2.8247   51.7651 H       1  ZINC000130059363    0.0800
     33 H33        -2.3716    3.8869   53.0647 H       1  ZINC000130059363    0.0800
     34 H34        -1.8934    4.5806   51.4967 H       1  ZINC000130059363    0.1000
     35 H35        -0.4513    4.1301   56.5662 H       1  ZINC000130059363    0.1300
     36 H36        -0.0127    3.5964   58.9271 H       1  ZINC000130059363    0.1300
     37 H37         2.1718    2.6882   59.6022 H       1  ZINC000130059363    0.1300
     38 H38         3.9282    2.3085   57.9220 H       1  ZINC000130059363    0.1300
     39 H39         3.5057    2.8298   55.5552 H       1  ZINC000130059363    0.1400
     40 H40         3.2848    4.3787   54.0764 H       1  ZINC000130059363    0.1400
     41 H41         2.8330    4.9074   51.6955 H       1  ZINC000130059363    0.1400
     42 H42        -0.8276    3.5068   47.8467 H       1  ZINC000130059363    0.0700
     43 H43        -0.0024    5.0810   47.9820 H       1  ZINC000130059363    0.0900
     44 H44         0.9949    3.5899   46.2107 H       1  ZINC000130059363    0.0900
     45 H45         2.1553    4.0451   47.4794 H       1  ZINC000130059363    0.0800
     46 H46         2.6660   -0.1400   48.5702 H       1  ZINC000130059363    0.0800
     47 H47         2.3647    0.1265   50.3073 H       1  ZINC000130059363    0.0900
     48 H48         0.7029   -1.4278   49.1355 H       1  ZINC000130059363    0.1000
     49 H49        -0.0183   -0.0589   50.0098 H       1  ZINC000130059363    0.1000
     50 H50        -1.2223    2.3044   46.1904 H       1  ZINC000130059363    0.1100
     51 H51         0.0367    2.4324   43.9917 H       1  ZINC000130059363    0.1100
     52 H52         1.4006    1.4226   44.7141 H       1  ZINC000130059363    0.1000
     53 H53        -0.2282   -0.4761   45.1344 H       1  ZINC000130059363    0.1000
     54 H54        -1.5919    0.5338   44.4121 H       1  ZINC000130059363    0.1000
     55 H55         1.0200    2.3118   50.9681 H       1  ZINC000130059363    0.1000
     56 H56        -0.1757    1.7248   49.7857 H       1  ZINC000130059363    0.0700
@<TRIPOS>BOND
     1     1     2    1
     2     1    32    1
     3     1    33    1
     4     1    34    1
     5     2    13   ar
     6     2     3   ar
     7     3     4   ar
     8     4     5    1
     9     4    11   ar
    10     5    10   ar
    11     5     6   ar
    12     6     7   ar
    13     6    35    1
    14     7     8   ar
    15     7    36    1
    16     8     9   ar
    17     8    37    1
    18     9    10   ar
    19     9    38    1
    20    10    39    1
    21    11    12   ar
    22    11    40    1
    23    12    13   ar
    24    12    41    1
    25    13    14    1
    26    14    15    2
    27    14    16   am
    28    16    31    1
    29    16    17    1
    30    17    18    1
    31    17    42    1
    32    17    43    1
    33    18    19    1
    34    18    44    1
    35    18    45    1
    36    19    20    1
    37    19    27    1
    38    19    21    1
    39    21    22    1
    40    21    23    1
    41    21    31    1
    42    23    24    1
    43    23    46    1
    44    23    47    1
    45    24    25    1
    46    24    48    1
    47    24    49    1
    48    25    26    2
    49    25    27   am
    50    27    28    1
    51    28    30    1
    52    28    29    1
    53    28    50    1
    54    29    30    1
    55    29    51    1
    56    29    52    1
    57    30    53    1
    58    30    54    1
    59    31    55    1
    60    31    56    1
@<TRIPOS>SUBSTRUCTURE
     1 ZINC000130059363        1 TEMP              0 ****  ****    0 ROOT


##########                                Name:    ZINC000611836474
##########                DOCK_Rotatable_Bonds:                   7
##########                         Heavy_Atoms:                  22
##########                    Molecular_Weight:             366.258
##########                DOCK_Rotatable_Bonds:                   7
##########                       Formal_Charge:          -0.0300004
##########                     HBond_Acceptors:                   5
##########                        HBond_Donors:                   1
##########                         Heavy_Atoms:                  22
##########                          Grid_Score:          -25.413818
##########                     Grid_vdw_energy:          -24.487289
##########                      Grid_es_energy:           -0.926529
##########           Internal_energy_repulsive:            8.110752

@<TRIPOS>MOLECULE
ZINC000611836474
 42 43 1 0 0
SMALL
USER_CHARGES


@<TRIPOS>ATOM
      1 C1        -14.7049   -2.9847   57.9686 C.3     1  ZINC000611836474   -0.1500
      2 C2        -14.9015   -2.1057   59.2055 C.3     1  ZINC000611836474   -0.1400
      3 C3        -14.1270   -0.7979   59.0302 C.3     1  ZINC000611836474    0.1300
      4 N4        -14.3441    0.0586   60.1987 N.pl3   1  ZINC000611836474   -0.3900
      5 N5        -15.4291    0.9219   60.3976 N.2     1  ZINC000611836474   -0.2900
      6 C6        -15.2765    1.5167   61.5530 C.2     1  ZINC000611836474    0.0600
      7 C7        -14.0910    1.0553   62.1316 C.2     1  ZINC000611836474   -0.2800
      8 C8        -13.5354    0.1514   61.2788 C.2     1  ZINC000611836474    0.3000
      9 N9        -12.3443   -0.5461   61.4788 N.am    1  ZINC000611836474   -0.6500
     10 C10       -11.1633    0.0968   61.3869 C.2     1  ZINC000611836474    0.5200
     11 O11       -11.1363    1.2823   61.1318 O.2     1  ZINC000611836474   -0.4700
     12 C12        -9.8762   -0.6573   61.6012 C.3     1  ZINC000611836474    0.0700
     13 H13       -10.0980   -1.7067   61.7951 H       1  ZINC000611836474    0.1100
     14 C14        -9.1306   -0.0639   62.7981 C.3     1  ZINC000611836474   -0.1800
     15 O15        -9.0615   -0.5508   60.4320 O.3     1  ZINC000611836474   -0.2700
     16 C16        -9.6206   -0.9323   59.2534 C.ar    1  ZINC000611836474    0.1500
     17 C17       -10.2616   -2.1579   59.1532 C.ar    1  ZINC000611836474   -0.2000
     18 C18       -10.8292   -2.5438   57.9539 C.ar    1  ZINC000611836474   -0.0600
     19 C19       -10.7583   -1.7096   56.8539 C.ar    1  ZINC000611836474   -0.1100
     20 C20       -11.3780   -2.1335   55.5472 C.3     1  ZINC000611836474   -0.1100
     21 C21       -10.1203   -0.4865   56.9505 C.ar    1  ZINC000611836474   -0.0500
     22 C22        -9.5560   -0.0933   58.1492 C.ar    1  ZINC000611836474   -0.1200
     23 Br23       -8.6835    1.5792   58.2811 Br      1  ZINC000611836474   -0.0300
     24 H24       -15.2566   -3.9163   58.0936 H       1  ZINC000611836474    0.0600
     25 H25       -15.0732   -2.4595   57.0874 H       1  ZINC000611836474    0.0600
     26 H26       -13.6445   -3.2043   57.8440 H       1  ZINC000611836474    0.0600
     27 H27       -15.9618   -1.8861   59.3302 H       1  ZINC000611836474    0.0800
     28 H28       -14.5332   -2.6308   60.0867 H       1  ZINC000611836474    0.0600
     29 H29       -13.0635   -1.0159   58.9321 H       1  ZINC000611836474    0.0800
     30 H30       -14.4771   -0.2856   58.1340 H       1  ZINC000611836474    0.1000
     31 H31       -15.9509    2.2409   61.9854 H       1  ZINC000611836474    0.1900
     32 H32       -13.6890    1.3590   63.0868 H       1  ZINC000611836474    0.1700
     33 H33       -12.3658   -1.4939   61.6840 H       1  ZINC000611836474    0.4100
     34 H34        -9.7521   -0.1452   63.6899 H       1  ZINC000611836474    0.0800
     35 H35        -8.1997   -0.6094   62.9530 H       1  ZINC000611836474    0.0800
     36 H36        -8.9089    0.9855   62.6042 H       1  ZINC000611836474    0.0800
     37 H37       -10.3167   -2.8107   60.0120 H       1  ZINC000611836474    0.1400
     38 H38       -11.3284   -3.4983   57.8757 H       1  ZINC000611836474    0.1300
     39 H39       -12.4134   -1.7950   55.5094 H       1  ZINC000611836474    0.0700
     40 H40       -10.8210   -1.6921   54.7209 H       1  ZINC000611836474    0.0700
     41 H41       -11.3478   -3.2201   55.4664 H       1  ZINC000611836474    0.0700
     42 H42       -10.0663    0.1635   56.0897 H       1  ZINC000611836474    0.1400
@<TRIPOS>BOND
     1     1     2    1
     2     1    24    1
     3     1    25    1
     4     1    26    1
     5     2     3    1
     6     2    27    1
     7     2    28    1
     8     3     4    1
     9     3    29    1
    10     3    30    1
    11     4     8    1
    12     4     5    1
    13     5     6    2
    14     6     7    1
    15     6    31    1
    16     7     8    2
    17     7    32    1
    18     8     9    1
    19     9    10   am
    20     9    33    1
    21    10    11    2
    22    10    12    1
    23    12    13    1
    24    12    14    1
    25    12    15    1
    26    14    34    1
    27    14    35    1
    28    14    36    1
    29    15    16    1
    30    16    22   ar
    31    16    17   ar
    32    17    18   ar
    33    17    37    1
    34    18    19   ar
    35    18    38    1
    36    19    20    1
    37    19    21   ar
    38    20    39    1
    39    20    40    1
    40    20    41    1
    41    21    22   ar
    42    21    42    1
    43    22    23    1
@<TRIPOS>SUBSTRUCTURE
     1 ZINC000611836474        1 TEMP              0 ****  ****    0 ROOT


##########                                Name:    ZINC000653668607
##########                DOCK_Rotatable_Bonds:                   5
##########                         Heavy_Atoms:                  28
##########                    Molecular_Weight:             379.459
##########                DOCK_Rotatable_Bonds:                   5
##########                       Formal_Charge:          0.00999918
##########                     HBond_Acceptors:                   6
##########                        HBond_Donors:                   2
##########                         Heavy_Atoms:                  28
##########                          Grid_Score:          -25.359617
##########                     Grid_vdw_energy:          -24.111811
##########                      Grid_es_energy:           -1.247807
##########           Internal_energy_repulsive:            6.312695

@<TRIPOS>MOLECULE
ZINC000653668607
 53 56 1 0 0
SMALL
USER_CHARGES


@<TRIPOS>ATOM
      1 C1        -16.3882   -1.5254   55.2884 C.3     1  ZINC000653668607    0.0300
      2 O2        -16.6433   -1.3443   56.6828 O.3     1  ZINC000653668607   -0.3200
      3 C3        -15.6081   -1.5699   57.5338 C.ar    1  ZINC000653668607    0.1300
      4 C4        -15.7084   -2.5514   58.5089 C.ar    1  ZINC000653668607   -0.2000
      5 C5        -14.6512   -2.7743   59.3655 C.ar    1  ZINC000653668607   -0.0800
      6 C6        -13.4861   -2.0252   59.2614 C.ar    1  ZINC000653668607   -0.1000
      7 C7        -12.3670   -2.3338   60.2216 C.3     1  ZINC000653668607   -0.0800
      8 C8        -11.3669   -1.1806   60.2697 C.3     1  ZINC000653668607   -0.1200
      9 C9        -10.9598   -0.8330   58.8329 C.3     1  ZINC000653668607   -0.1100
     10 C10       -12.1569   -0.1908   58.1350 C.3     1  ZINC000653668607   -0.0600
     11 H11       -12.3422    0.7913   58.5699 H       1  ZINC000653668607    0.1000
     12 C12       -11.8516   -0.0347   56.6675 C.2     1  ZINC000653668607    0.5200
     13 O13       -11.6248   -1.0133   55.9878 O.2     1  ZINC000653668607   -0.5100
     14 N14       -11.8305    1.1923   56.1104 N.am    1  ZINC000653668607   -0.6700
     15 C15       -11.5470    1.3373   54.7479 C.ar    1  ZINC000653668607    0.1500
     16 C16       -12.5812    1.3570   53.8209 C.ar    1  ZINC000653668607   -0.1100
     17 C17       -12.3021    1.5000   52.4751 C.ar    1  ZINC000653668607   -0.0900
     18 C18       -10.9945    1.6239   52.0473 C.ar    1  ZINC000653668607   -0.1200
     19 C19        -9.9555    1.6045   52.9695 C.ar    1  ZINC000653668607    0.1700
     20 N20        -8.6310    1.7296   52.5353 N.am    1  ZINC000653668607   -0.5800
     21 C21        -7.9962    3.0486   52.5407 C.3     1  ZINC000653668607    0.1100
     22 C22        -6.4871    2.8795   52.7462 C.3     1  ZINC000653668607   -0.1500
     23 C23        -5.9493    1.9397   51.6619 C.3     1  ZINC000653668607    0.1100
     24 N24        -6.6952    0.6808   51.7043 N.am    1  ZINC000653668607   -0.7400
     25 C25        -7.9671    0.6375   52.1280 C.2     1  ZINC000653668607    0.7100
     26 O26        -8.5445   -0.4326   52.1336 O.2     1  ZINC000653668607   -0.5800
     27 C27       -10.2328    1.4673   54.3218 C.ar    1  ZINC000653668607   -0.1300
     28 C28       -13.3863   -1.0461   58.2976 C.ar    1  ZINC000653668607   -0.0300
     29 C29       -14.4456   -0.8251   57.4285 C.ar    1  ZINC000653668607   -0.1500
     30 H30       -15.5962   -0.8462   54.9728 H       1  ZINC000653668607    0.0600
     31 H31       -16.0784   -2.5544   55.1063 H       1  ZINC000653668607    0.0600
     32 H32       -17.2955   -1.3135   54.7225 H       1  ZINC000653668607    0.1000
     33 H33       -16.6108   -3.1381   58.5971 H       1  ZINC000653668607    0.1300
     34 H34       -14.7298   -3.5384   60.1247 H       1  ZINC000653668607    0.1300
     35 H35       -12.7812   -2.4921   61.2174 H       1  ZINC000653668607    0.0800
     36 H36       -11.8552   -3.2401   59.8977 H       1  ZINC000653668607    0.0800
     37 H37       -11.8293   -0.3129   60.7403 H       1  ZINC000653668607    0.0700
     38 H38       -10.4867   -1.4814   60.8380 H       1  ZINC000653668607    0.0800
     39 H39       -10.1243   -0.1330   58.8473 H       1  ZINC000653668607    0.0700
     40 H40       -10.6698   -1.7407   58.3037 H       1  ZINC000653668607    0.0800
     41 H41       -12.0119    1.9750   56.6540 H       1  ZINC000653668607    0.4100
     42 H42       -13.6045    1.2599   54.1522 H       1  ZINC000653668607    0.1400
     43 H43       -13.1079    1.5147   51.7562 H       1  ZINC000653668607    0.1300
     44 H44       -10.7795    1.7356   50.9948 H       1  ZINC000653668607    0.1200
     45 H45        -8.1807    3.5454   51.5882 H       1  ZINC000653668607    0.0700
     46 H46        -8.4094    3.6484   53.3516 H       1  ZINC000653668607    0.0900
     47 H47        -5.9959    3.8493   52.6666 H       1  ZINC000653668607    0.1000
     48 H48        -6.2975    2.4499   53.7299 H       1  ZINC000653668607    0.0800
     49 H49        -6.0732    2.4037   50.6834 H       1  ZINC000653668607    0.0700
     50 H50        -4.8923    1.7431   51.8417 H       1  ZINC000653668607    0.0900
     51 H51        -6.2596   -0.1393   51.4240 H       1  ZINC000653668607    0.4200
     52 H52        -9.4269    1.4523   55.0406 H       1  ZINC000653668607    0.1300
     53 H53       -14.3645   -0.0629   56.6677 H       1  ZINC000653668607    0.1200
@<TRIPOS>BOND
     1     1     2    1
     2     1    30    1
     3     1    31    1
     4     1    32    1
     5     2     3    1
     6     3    29   ar
     7     3     4   ar
     8     4     5   ar
     9     4    33    1
    10     5     6   ar
    11     5    34    1
    12     6    28   ar
    13     6     7    1
    14     7     8    1
    15     7    35    1
    16     7    36    1
    17     8     9    1
    18     8    37    1
    19     8    38    1
    20     9    10    1
    21     9    39    1
    22     9    40    1
    23    10    11    1
    24    10    12    1
    25    10    28    1
    26    12    13    2
    27    12    14   am
    28    14    15    1
    29    14    41    1
    30    15    27   ar
    31    15    16   ar
    32    16    17   ar
    33    16    42    1
    34    17    18   ar
    35    17    43    1
    36    18    19   ar
    37    18    44    1
    38    19    20    1
    39    19    27   ar
    40    20    25   am
    41    20    21    1
    42    21    22    1
    43    21    45    1
    44    21    46    1
    45    22    23    1
    46    22    47    1
    47    22    48    1
    48    23    24    1
    49    23    49    1
    50    23    50    1
    51    24    25   am
    52    24    51    1
    53    25    26    2
    54    27    52    1
    55    28    29   ar
    56    29    53    1
@<TRIPOS>SUBSTRUCTURE
     1 ZINC000653668607        1 TEMP              0 ****  ****    0 ROOT


##########                                Name:    ZINC000966038509
##########                DOCK_Rotatable_Bonds:                   5
##########                         Heavy_Atoms:                  25
##########                    Molecular_Weight:             346.445
##########                DOCK_Rotatable_Bonds:                   5
##########                       Formal_Charge:           0.0299998
##########                     HBond_Acceptors:                   5
##########                        HBond_Donors:                   1
##########                         Heavy_Atoms:                  25
##########                          Grid_Score:          -25.357550
##########                     Grid_vdw_energy:          -24.836649
##########                      Grid_es_energy:           -0.520902
##########           Internal_energy_repulsive:           18.214462

@<TRIPOS>MOLECULE
ZINC000966038509
 52 54 1 0 0
SMALL
USER_CHARGES


@<TRIPOS>ATOM
      1 C1        -11.0762   -0.7267   57.3321 C.3     1  ZINC000966038509   -0.1200
      2 C2        -10.1182    0.2390   57.9807 C.ar    1  ZINC000966038509   -0.0100
      3 C3         -9.6176   -0.0245   59.2376 C.ar    1  ZINC000966038509   -0.1600
      4 C4         -8.7365    0.8635   59.8358 C.ar    1  ZINC000966038509    0.1300
      5 F5         -8.2490    0.6006   61.0680 F       1  ZINC000966038509   -0.1300
      6 C6         -8.3535    2.0199   59.1737 C.ar    1  ZINC000966038509   -0.1600
      7 C7         -8.8482    2.2931   57.9164 C.ar    1  ZINC000966038509   -0.0100
      8 C8         -8.4314    3.5508   57.1982 C.3     1  ZINC000966038509   -0.1200
      9 C9         -9.7318    1.3997   57.3071 C.ar    1  ZINC000966038509   -0.1500
     10 C10       -10.2651    1.6873   55.9599 C.2     1  ZINC000966038509    0.5700
     11 O11       -11.2170    2.4321   55.8292 O.2     1  ZINC000966038509   -0.5200
     12 N12        -9.6965    1.1239   54.8755 N.am    1  ZINC000966038509   -0.7100
     13 C13       -10.2244    1.4106   53.5394 C.3     1  ZINC000966038509    0.1300
     14 H14       -11.0777    2.0865   53.5954 H       1  ZINC000966038509    0.1200
     15 C15        -9.1201    1.9856   52.6176 C.3     1  ZINC000966038509    0.0900
     16 N16        -8.3700    0.8069   52.1468 N.am    1  ZINC000966038509   -0.6200
     17 C17        -7.0925    0.8090   51.7173 C.2     1  ZINC000966038509    0.5400
     18 O18        -6.5738   -0.2246   51.3519 O.2     1  ZINC000966038509   -0.5300
     19 C19        -6.3086    2.0958   51.6910 C.3     1  ZINC000966038509   -0.1100
     20 C20        -4.7906    1.8040   51.5926 C.3     1  ZINC000966038509   -0.1100
     21 C21        -4.2302    3.1114   50.9797 C.3     1  ZINC000966038509   -0.1200
     22 C22        -5.3028    3.5399   49.9569 C.3     1  ZINC000966038509   -0.1200
     23 C23        -6.6242    2.8942   50.4092 C.3     1  ZINC000966038509   -0.1100
     24 C24        -9.2461   -0.3712   52.2242 C.3     1  ZINC000966038509    0.1000
     25 C25       -10.6002    0.1008   52.7972 C.3     1  ZINC000966038509   -0.1100
     26 H26       -11.3096    0.3021   51.9944 H       1  ZINC000966038509    0.1000
     27 C27       -11.1667   -0.9349   53.7705 C.3     1  ZINC000966038509   -0.1400
     28 H28       -10.5154   -1.4650   56.7589 H       1  ZINC000966038509    0.0800
     29 H29       -11.6603   -1.2313   58.1017 H       1  ZINC000966038509    0.0800
     30 H30       -11.7459   -0.1821   56.6664 H       1  ZINC000966038509    0.0700
     31 H31        -9.9124   -0.9240   59.7576 H       1  ZINC000966038509    0.1400
     32 H32        -7.6667    2.7080   59.6439 H       1  ZINC000966038509    0.1400
     33 H33        -7.5394    3.3514   56.6044 H       1  ZINC000966038509    0.0800
     34 H34        -9.2382    3.8793   56.5430 H       1  ZINC000966038509    0.0700
     35 H35        -8.2154    4.3312   57.9278 H       1  ZINC000966038509    0.0800
     36 H36        -8.9378    0.5287   54.9799 H       1  ZINC000966038509    0.4000
     37 H37        -9.5663    2.5129   51.7745 H       1  ZINC000966038509    0.0800
     38 H38        -8.4658    2.6519   53.1797 H       1  ZINC000966038509    0.0800
     39 H39        -6.5277    2.6931   52.5761 H       1  ZINC000966038509    0.0900
     40 H40        -4.3662    1.6278   52.5810 H       1  ZINC000966038509    0.0700
     41 H41        -4.6021    0.9565   50.9336 H       1  ZINC000966038509    0.0700
     42 H42        -4.1115    3.8735   51.7498 H       1  ZINC000966038509    0.0700
     43 H43        -3.2804    2.9218   50.4797 H       1  ZINC000966038509    0.0700
     44 H44        -5.4004    4.6254   49.9510 H       1  ZINC000966038509    0.0700
     45 H45        -5.0340    3.1833   48.9626 H       1  ZINC000966038509    0.0700
     46 H46        -6.9968    2.2242   49.6343 H       1  ZINC000966038509    0.0800
     47 H47        -7.3632    3.6663   50.6228 H       1  ZINC000966038509    0.0700
     48 H48        -9.3911   -0.7914   51.2290 H       1  ZINC000966038509    0.0800
     49 H49        -8.8049   -1.1186   52.8836 H       1  ZINC000966038509    0.0700
     50 H50       -10.4559   -1.0992   54.5803 H       1  ZINC000966038509    0.0600
     51 H51       -12.1081   -0.5702   54.1817 H       1  ZINC000966038509    0.0700
     52 H52       -11.3398   -1.8728   53.2429 H       1  ZINC000966038509    0.0700
@<TRIPOS>BOND
     1     1     2    1
     2     1    28    1
     3     1    29    1
     4     1    30    1
     5     2     9   ar
     6     2     3   ar
     7     3     4   ar
     8     3    31    1
     9     4     5    1
    10     4     6   ar
    11     6     7   ar
    12     6    32    1
    13     7     8    1
    14     7     9   ar
    15     8    33    1
    16     8    34    1
    17     8    35    1
    18     9    10    1
    19    10    11    2
    20    10    12   am
    21    12    13    1
    22    12    36    1
    23    13    14    1
    24    13    25    1
    25    13    15    1
    26    15    16    1
    27    15    37    1
    28    15    38    1
    29    16    17   am
    30    16    24    1
    31    17    18    2
    32    17    19    1
    33    19    23    1
    34    19    20    1
    35    19    39    1
    36    20    21    1
    37    20    40    1
    38    20    41    1
    39    21    22    1
    40    21    42    1
    41    21    43    1
    42    22    23    1
    43    22    44    1
    44    22    45    1
    45    23    46    1
    46    23    47    1
    47    24    25    1
    48    24    48    1
    49    24    49    1
    50    25    26    1
    51    25    27    1
    52    27    50    1
    53    27    51    1
    54    27    52    1
@<TRIPOS>SUBSTRUCTURE
     1 ZINC000966038509        1 TEMP              0 ****  ****    0 ROOT


##########                                Name:    ZINC000794876634
##########                DOCK_Rotatable_Bonds:                   4
##########                         Heavy_Atoms:                  24
##########                    Molecular_Weight:             389.249
##########                DOCK_Rotatable_Bonds:                   4
##########                       Formal_Charge:        -4.47035e-08
##########                     HBond_Acceptors:                   5
##########                        HBond_Donors:                   0
##########                         Heavy_Atoms:                  24
##########                          Grid_Score:          -25.240639
##########                     Grid_vdw_energy:          -24.964382
##########                      Grid_es_energy:           -0.276256
##########           Internal_energy_repulsive:           52.387348

@<TRIPOS>MOLECULE
ZINC000794876634
 41 43 1 0 0
SMALL
USER_CHARGES


@<TRIPOS>ATOM
      1 C1          0.0476   -0.1679   44.6356 C.3     1  ZINC000794876634    0.0200
      2 O2         -0.0072    1.2490   44.8126 O.3     1  ZINC000794876634   -0.3000
      3 C3         -0.3381    1.7034   46.0488 C.ar    1  ZINC000794876634    0.1300
      4 C4         -0.7150    0.8049   47.0384 C.ar    1  ZINC000794876634   -0.1800
      5 C5         -1.0523    1.2591   48.2941 C.ar    1  ZINC000794876634   -0.0400
      6 C6         -1.4607    0.2807   49.3650 C.3     1  ZINC000794876634   -0.1200
      7 C7         -1.0150    2.6312   48.5753 C.ar    1  ZINC000794876634   -0.1000
      8 C8         -1.3729    3.1181   49.9107 C.2     1  ZINC000794876634    0.0600
      9 C9         -0.4594    3.0659   50.9235 C.2     1  ZINC000794876634   -0.1700
     10 C10         0.9219    2.5579   50.8616 C.2     1  ZINC000794876634    0.5700
     11 O11         1.4721    2.0979   49.8779 O.2     1  ZINC000794876634   -0.4900
     12 N12         1.4676    2.6923   52.0820 N.am    1  ZINC000794876634   -0.5300
     13 C13         2.8372    2.2970   52.4200 C.3     1  ZINC000794876634    0.0800
     14 C14         0.5736    3.2524   52.9814 C.ar    1  ZINC000794876634    0.3700
     15 N15         0.6952    3.5554   54.2678 N.ar    1  ZINC000794876634   -0.4900
     16 C16        -0.2939    4.0916   54.9536 C.ar    1  ZINC000794876634    0.1800
     17 C17        -1.5155    4.3680   54.3658 C.ar    1  ZINC000794876634   -0.1800
     18 Br18       -2.9139    5.1386   55.3791 Br      1  ZINC000794876634   -0.0200
     19 C19        -1.7008    4.0725   53.0230 C.ar    1  ZINC000794876634    0.0000
     20 C20        -0.6374    3.5128   52.3226 C.ar    1  ZINC000794876634   -0.1400
     21 C21        -0.6338    3.5368   47.5752 C.ar    1  ZINC000794876634   -0.1400
     22 C22        -0.2928    3.0711   46.3219 C.ar    1  ZINC000794876634    0.0900
     23 O23         0.0779    3.9464   45.3494 O.3     1  ZINC000794876634   -0.3000
     24 C24         0.1569    3.4393   44.0157 C.3     1  ZINC000794876634    0.0200
     25 H25         0.3226   -0.3950   43.6056 H       1  ZINC000794876634    0.1000
     26 H26         0.7912   -0.5900   45.3116 H       1  ZINC000794876634    0.0600
     27 H27        -0.9291   -0.5995   44.8545 H       1  ZINC000794876634    0.0600
     28 H28        -0.7441   -0.2529   46.8226 H       1  ZINC000794876634    0.1400
     29 H29        -0.5785   -0.0419   49.9180 H       1  ZINC000794876634    0.0800
     30 H30        -2.1620    0.7609   50.0475 H       1  ZINC000794876634    0.0700
     31 H31        -1.9371   -0.5846   48.9042 H       1  ZINC000794876634    0.0700
     32 H32        -2.3593    3.5179   50.0932 H       1  ZINC000794876634    0.1500
     33 H33         3.3251    1.8858   51.5363 H       1  ZINC000794876634    0.0900
     34 H34         3.3914    3.1685   52.7686 H       1  ZINC000794876634    0.0800
     35 H35         2.8140    1.5427   53.2065 H       1  ZINC000794876634    0.0800
     36 H36        -0.1477    4.3206   55.9989 H       1  ZINC000794876634    0.1800
     37 H37        -2.6424    4.2753   52.5344 H       1  ZINC000794876634    0.1600
     38 H38        -0.6034    4.5955   47.7863 H       1  ZINC000794876634    0.1400
     39 H39         0.9462    2.6899   43.9582 H       1  ZINC000794876634    0.0500
     40 H40        -0.7958    2.9855   43.7426 H       1  ZINC000794876634    0.0600
     41 H41         0.3804    4.2559   43.3292 H       1  ZINC000794876634    0.1100
@<TRIPOS>BOND
     1     1     2    1
     2     1    25    1
     3     1    26    1
     4     1    27    1
     5     2     3    1
     6     3    22   ar
     7     3     4   ar
     8     4     5   ar
     9     4    28    1
    10     5     6    1
    11     5     7   ar
    12     6    29    1
    13     6    30    1
    14     6    31    1
    15     7     8    1
    16     7    21   ar
    17     8     9    2
    18     8    32    1
    19     9    20    1
    20     9    10    1
    21    10    11    2
    22    10    12   am
    23    12    13    1
    24    12    14    1
    25    13    33    1
    26    13    34    1
    27    13    35    1
    28    14    20   ar
    29    14    15   ar
    30    15    16   ar
    31    16    17   ar
    32    16    36    1
    33    17    18    1
    34    17    19   ar
    35    19    20   ar
    36    19    37    1
    37    21    22   ar
    38    21    38    1
    39    22    23    1
    40    23    24    1
    41    24    39    1
    42    24    40    1
    43    24    41    1
@<TRIPOS>SUBSTRUCTURE
     1 ZINC000794876634        1 TEMP              0 ****  ****    0 ROOT


##########                                Name:    ZINC000463474628
##########                DOCK_Rotatable_Bonds:                   5
##########                         Heavy_Atoms:                  25
##########                    Molecular_Weight:              407.35
##########                DOCK_Rotatable_Bonds:                   5
##########                       Formal_Charge:           0.0200004
##########                     HBond_Acceptors:                   4
##########                        HBond_Donors:                   0
##########                         Heavy_Atoms:                  25
##########                          Grid_Score:          -25.148054
##########                     Grid_vdw_energy:          -24.418001
##########                      Grid_es_energy:           -0.730054
##########           Internal_energy_repulsive:           43.590015

@<TRIPOS>MOLECULE
ZINC000463474628
 52 54 1 0 0
SMALL
USER_CHARGES


@<TRIPOS>ATOM
      1 C1         -9.0139    2.2187   59.4059 C.3     1  ZINC000463474628   -0.1400
      2 C2         -8.4246    1.4712   58.2079 C.3     1  ZINC000463474628   -0.1300
      3 C3         -8.3755    2.4058   56.9976 C.3     1  ZINC000463474628    0.1400
      4 H4         -8.0176    1.8617   56.1236 H       1  ZINC000463474628    0.0800
      5 C5         -7.4411    3.5980   57.2927 C.3     1  ZINC000463474628   -0.1300
      6 C6         -8.1767    4.7897   56.6248 C.3     1  ZINC000463474628   -0.1300
      7 C7         -9.6598    4.4211   56.8780 C.3     1  ZINC000463474628    0.0900
      8 N8         -9.7147    2.9518   56.7328 N.am    1  ZINC000463474628   -0.6100
      9 C9        -10.8099    2.2344   56.4132 C.2     1  ZINC000463474628    0.5300
     10 O10       -11.8670    2.7960   56.2177 O.2     1  ZINC000463474628   -0.5100
     11 C11       -10.7211    0.7344   56.2987 C.3     1  ZINC000463474628   -0.1200
     12 H12        -9.6752    0.4286   56.3271 H       1  ZINC000463474628    0.1000
     13 C13       -11.3490    0.2849   54.9774 C.3     1  ZINC000463474628   -0.1000
     14 C14       -11.2299   -1.2351   54.8451 C.3     1  ZINC000463474628   -0.1300
     15 C15       -11.9903   -1.9048   55.9942 C.3     1  ZINC000463474628    0.0900
     16 N16       -11.4904   -1.3689   57.2676 N.am    1  ZINC000463474628   -0.6000
     17 C17       -11.0537   -2.1972   58.2370 C.2     1  ZINC000463474628    0.5700
     18 O18       -11.0711   -3.4000   58.0621 O.2     1  ZINC000463474628   -0.5200
     19 C19       -10.5537   -1.6431   59.5127 C.ar    1  ZINC000463474628   -0.1200
     20 C20        -9.1832   -1.4674   59.7111 C.ar    1  ZINC000463474628   -0.0800
     21 C21        -8.7227   -0.9499   60.9038 C.ar    1  ZINC000463474628   -0.1000
     22 C22        -9.6168   -0.6049   61.9032 C.ar    1  ZINC000463474628   -0.0700
     23 Br23       -8.9771    0.1046   63.5351 Br      1  ZINC000463474628   -0.0400
     24 C24       -10.9777   -0.7769   61.7122 C.ar    1  ZINC000463474628   -0.0900
     25 C25       -11.4506   -1.2879   60.5221 C.ar    1  ZINC000463474628   -0.0300
     26 C26       -12.9318   -1.4746   60.3160 C.3     1  ZINC000463474628   -0.1300
     27 C27       -11.4749    0.0871   57.4647 C.3     1  ZINC000463474628    0.1200
     28 H28        -8.2305    2.7989   59.8932 H       1  ZINC000463474628    0.0700
     29 H29        -9.8027    2.8886   59.0638 H       1  ZINC000463474628    0.0600
     30 H30        -9.4282    1.5010   60.1139 H       1  ZINC000463474628    0.0300
     31 H31        -7.4159    1.1360   58.4494 H       1  ZINC000463474628    0.0600
     32 H32        -9.0484    0.6082   57.9755 H       1  ZINC000463474628    0.0700
     33 H33        -7.3459    3.7568   58.3669 H       1  ZINC000463474628    0.0800
     34 H34        -6.4633    3.4438   56.8365 H       1  ZINC000463474628    0.0800
     35 H35        -7.9192    5.7303   57.1117 H       1  ZINC000463474628    0.0900
     36 H36        -7.9616    4.8327   55.5571 H       1  ZINC000463474628    0.0800
     37 H37        -9.9574    4.7155   57.8843 H       1  ZINC000463474628    0.0700
     38 H38       -10.3011    4.8983   56.1370 H       1  ZINC000463474628    0.0800
     39 H39       -12.4009    0.5697   54.9598 H       1  ZINC000463474628    0.0800
     40 H40       -10.8296    0.7634   54.1472 H       1  ZINC000463474628    0.0700
     41 H41       -11.6563   -1.5520   53.8933 H       1  ZINC000463474628    0.0800
     42 H42       -10.1795   -1.5228   54.8875 H       1  ZINC000463474628    0.0700
     43 H43       -13.0551   -1.6917   55.9010 H       1  ZINC000463474628    0.0800
     44 H44       -11.8268   -2.9820   55.9618 H       1  ZINC000463474628    0.1000
     45 H45        -8.4848   -1.7365   58.9325 H       1  ZINC000463474628    0.1400
     46 H46        -7.6626   -0.8138   61.0587 H       1  ZINC000463474628    0.1400
     47 H47       -11.6703   -0.5063   62.4956 H       1  ZINC000463474628    0.1400
     48 H48       -13.3389   -0.6059   59.7986 H       1  ZINC000463474628    0.0700
     49 H49       -13.1055   -2.3686   59.7171 H       1  ZINC000463474628    0.0900
     50 H50       -13.4223   -1.5841   61.2833 H       1  ZINC000463474628    0.0700
     51 H51       -10.9719    0.3236   58.4023 H       1  ZINC000463474628    0.1000
     52 H52       -12.4977    0.4631   57.4913 H       1  ZINC000463474628    0.0800
@<TRIPOS>BOND
     1     1     2    1
     2     1    28    1
     3     1    29    1
     4     1    30    1
     5     2     3    1
     6     2    31    1
     7     2    32    1
     8     3     4    1
     9     3     8    1
    10     3     5    1
    11     5     6    1
    12     5    33    1
    13     5    34    1
    14     6     7    1
    15     6    35    1
    16     6    36    1
    17     7     8    1
    18     7    37    1
    19     7    38    1
    20     8     9   am
    21     9    10    2
    22     9    11    1
    23    11    12    1
    24    11    27    1
    25    11    13    1
    26    13    14    1
    27    13    39    1
    28    13    40    1
    29    14    15    1
    30    14    41    1
    31    14    42    1
    32    15    16    1
    33    15    43    1
    34    15    44    1
    35    16    17   am
    36    16    27    1
    37    17    18    2
    38    17    19    1
    39    19    25   ar
    40    19    20   ar
    41    20    21   ar
    42    20    45    1
    43    21    22   ar
    44    21    46    1
    45    22    23    1
    46    22    24   ar
    47    24    25   ar
    48    24    47    1
    49    25    26    1
    50    26    48    1
    51    26    49    1
    52    26    50    1
    53    27    51    1
    54    27    52    1
@<TRIPOS>SUBSTRUCTURE
     1 ZINC000463474628        1 TEMP              0 ****  ****    0 ROOT


##########                                Name:    ZINC000444205493
##########                DOCK_Rotatable_Bonds:                   4
##########                         Heavy_Atoms:                  24
##########                    Molecular_Weight:             415.351
##########                DOCK_Rotatable_Bonds:                   4
##########                       Formal_Charge:         -0.00999995
##########                     HBond_Acceptors:                   6
##########                        HBond_Donors:                   1
##########                         Heavy_Atoms:                  24
##########                          Grid_Score:          -25.103521
##########                     Grid_vdw_energy:          -25.554281
##########                      Grid_es_energy:            0.450759
##########           Internal_energy_repulsive:            4.983867

@<TRIPOS>MOLECULE
ZINC000444205493
 47 49 1 0 0
SMALL
USER_CHARGES


@<TRIPOS>ATOM
      1 C1         -4.1066    2.2169   51.2501 C.3     1  ZINC000444205493   -0.1700
      2 C2         -5.5569    1.8076   51.2548 C.2     1  ZINC000444205493    0.5100
      3 O3         -6.0780    1.4097   50.2344 O.2     1  ZINC000444205493   -0.5100
      4 N4         -6.2750    1.8838   52.3928 N.am    1  ZINC000444205493   -0.6800
      5 C5         -7.6220    1.5036   52.3971 C.ar    1  ZINC000444205493    0.2300
      6 C6         -7.9773    0.1980   52.0872 C.ar    1  ZINC000444205493   -0.1400
      7 C7         -9.3077   -0.1744   52.0928 C.ar    1  ZINC000444205493    0.0200
      8 C8        -10.2853    0.7516   52.4061 C.ar    1  ZINC000444205493   -0.6900
      9 S9        -11.9808    0.2722   52.4114 S.o2    1  ZINC000444205493    2.7100
     10 O10       -12.7119    1.3774   51.8982 O.2     1  ZINC000444205493   -0.9500
     11 O11       -12.0322   -1.0272   51.8385 O.2     1  ZINC000444205493   -0.9500
     12 N12       -12.4377    0.1037   53.9942 N.am    1  ZINC000444205493   -1.0100
     13 C13       -12.4049    1.1664   55.0169 C.3     1  ZINC000444205493    0.1200
     14 C14       -13.4516    0.7344   56.0766 C.3     1  ZINC000444205493   -0.1200
     15 C15       -13.2782   -0.7968   56.0724 C.3     1  ZINC000444205493   -0.0700
     16 C16       -12.1476   -1.2208   57.0155 C.3     1  ZINC000444205493   -0.1100
     17 C17       -12.8846   -1.6600   58.3079 C.3     1  ZINC000444205493   -0.1200
     18 C18       -14.1608   -2.3490   57.7610 C.3     1  ZINC000444205493   -0.1000
     19 H19       -13.9418   -3.3733   57.4595 H       1  ZINC000444205493    0.0700
     20 C20       -15.2728   -2.3275   58.8115 C.3     1  ZINC000444205493   -0.1500
     21 C21       -14.5560   -1.4969   56.5336 C.3     1  ZINC000444205493   -0.1100
     22 C22       -12.9506   -1.1304   54.6132 C.3     1  ZINC000444205493    0.1300
     23 C23        -9.9354    2.0533   52.7158 C.ar    1  ZINC000444205493    0.0300
     24 C24        -8.6063    2.4309   52.7172 C.ar    1  ZINC000444205493   -0.1500
     25 Br25       -8.1284    4.2109   53.1408 Br      1  ZINC000444205493   -0.0300
     26 H26        -3.6957    2.0873   50.2489 H       1  ZINC000444205493    0.1000
     27 H27        -4.0234    3.2632   51.5445 H       1  ZINC000444205493    0.1000
     28 H28        -3.5517    1.5964   51.9537 H       1  ZINC000444205493    0.1000
     29 H29        -5.8583    2.2022   53.2088 H       1  ZINC000444205493    0.4200
     30 H30        -7.2144   -0.5260   51.8416 H       1  ZINC000444205493    0.1600
     31 H31        -9.5844   -1.1902   51.8517 H       1  ZINC000444205493    0.1500
     32 H32       -11.4138    1.2291   55.4665 H       1  ZINC000444205493    0.0800
     33 H33       -12.6836    2.1241   54.5773 H       1  ZINC000444205493    0.0800
     34 H34       -13.2131    1.1522   57.0548 H       1  ZINC000444205493    0.0900
     35 H35       -14.4588    1.0147   55.7685 H       1  ZINC000444205493    0.0800
     36 H36       -11.5887   -2.0552   56.5916 H       1  ZINC000444205493    0.0700
     37 H37       -11.4848   -0.3801   57.2202 H       1  ZINC000444205493    0.0700
     38 H38       -12.2790   -2.3656   58.8767 H       1  ZINC000444205493    0.0700
     39 H39       -13.1445   -0.7943   58.9170 H       1  ZINC000444205493    0.0700
     40 H40       -15.4922   -1.2961   59.0874 H       1  ZINC000444205493    0.0500
     41 H41       -16.1693   -2.7924   58.4012 H       1  ZINC000444205493    0.0500
     42 H42       -14.9493   -2.8789   59.6944 H       1  ZINC000444205493    0.0500
     43 H43       -15.3068   -0.7588   56.8157 H       1  ZINC000444205493    0.0700
     44 H44       -14.9395   -2.1380   55.7399 H       1  ZINC000444205493    0.0700
     45 H45       -13.8503   -1.4658   54.0973 H       1  ZINC000444205493    0.0700
     46 H46       -12.1863   -1.9065   54.5716 H       1  ZINC000444205493    0.0800
     47 H47       -10.7014    2.7742   52.9605 H       1  ZINC000444205493    0.1500
@<TRIPOS>BOND
     1     1     2    1
     2     1    26    1
     3     1    27    1
     4     1    28    1
     5     2     3    2
     6     2     4   am
     7     4     5    1
     8     4    29    1
     9     5    24   ar
    10     5     6   ar
    11     6     7   ar
    12     6    30    1
    13     7     8   ar
    14     7    31    1
    15     8     9    1
    16     8    23   ar
    17     9    10    2
    18     9    11    2
    19     9    12   am
    20    12    22    1
    21    12    13    1
    22    13    14    1
    23    13    32    1
    24    13    33    1
    25    14    15    1
    26    14    34    1
    27    14    35    1
    28    15    21    1
    29    15    16    1
    30    15    22    1
    31    16    17    1
    32    16    36    1
    33    16    37    1
    34    17    18    1
    35    17    38    1
    36    17    39    1
    37    18    19    1
    38    18    20    1
    39    18    21    1
    40    20    40    1
    41    20    41    1
    42    20    42    1
    43    21    43    1
    44    21    44    1
    45    22    45    1
    46    22    46    1
    47    23    24   ar
    48    23    47    1
    49    24    25    1
@<TRIPOS>SUBSTRUCTURE
     1 ZINC000444205493        1 TEMP              0 ****  ****    0 ROOT


##########                                Name:    ZINC000840649129
##########                DOCK_Rotatable_Bonds:                   8
##########                         Heavy_Atoms:                  26
##########                    Molecular_Weight:             376.839
##########                DOCK_Rotatable_Bonds:                   8
##########                       Formal_Charge:          -0.0199998
##########                     HBond_Acceptors:                   7
##########                        HBond_Donors:                   3
##########                         Heavy_Atoms:                  26
##########                          Grid_Score:          -25.054661
##########                     Grid_vdw_energy:          -25.200871
##########                      Grid_es_energy:            0.146209
##########           Internal_energy_repulsive:           21.301453

@<TRIPOS>MOLECULE
ZINC000840649129
 47 48 1 0 0
SMALL
USER_CHARGES


@<TRIPOS>ATOM
      1 C1         -8.3074   -0.9458   60.1050 C.3     1  ZINC000840649129    0.0200
      2 O2         -9.4636   -1.5220   59.4943 O.3     1  ZINC000840649129   -0.2900
      3 C3         -9.9346   -0.9175   58.3739 C.ar    1  ZINC000840649129    0.1400
      4 C4         -9.4103    0.3003   57.9688 C.ar    1  ZINC000840649129   -0.1700
      5 C5         -9.8879    0.9168   56.8297 C.ar    1  ZINC000840649129   -0.1200
      6 C6        -10.8972    0.3222   56.0797 C.ar    1  ZINC000840649129    0.1700
      7 N7        -11.3749    0.9547   54.9262 N.pl3   1  ZINC000840649129   -0.8800
      8 C8        -11.4298   -0.8940   56.4712 C.ar    1  ZINC000840649129   -0.1000
      9 C9        -10.9483   -1.5259   57.6206 C.ar    1  ZINC000840649129   -0.1200
     10 C10       -11.5097   -2.8214   58.0441 C.2     1  ZINC000840649129    0.5100
     11 O11       -11.0120   -3.8574   57.6495 O.2     1  ZINC000840649129   -0.4800
     12 O12       -12.5748   -2.8568   58.8687 O.3     1  ZINC000840649129   -0.3200
     13 C13       -13.4182   -1.6754   58.9073 C.3     1  ZINC000840649129    0.0800
     14 H14       -12.9755   -0.8927   58.2914 H       1  ZINC000840649129    0.1200
     15 C15       -13.5370   -1.1893   60.3288 C.2     1  ZINC000840649129    0.5200
     16 O16       -13.6045   -1.9878   61.2392 O.2     1  ZINC000840649129   -0.4900
     17 N17       -13.5680    0.1328   60.5884 N.am    1  ZINC000840649129   -0.6600
     18 C18       -13.6784    0.5845   61.9088 C.ar    1  ZINC000840649129    0.1600
     19 C19       -14.9084    0.9975   62.4021 C.ar    1  ZINC000840649129   -0.1400
     20 C20       -15.0143    1.4424   63.7059 C.ar    1  ZINC000840649129   -0.0900
     21 C21       -13.8971    1.4768   64.5196 C.ar    1  ZINC000840649129   -0.1300
     22 C22       -12.6696    1.0666   64.0317 C.ar    1  ZINC000840649129   -0.0900
     23 C23       -12.5578    0.6151   62.7305 C.ar    1  ZINC000840649129   -0.0700
     24 Cl24      -11.0170    0.0997   62.1187 Cl      1  ZINC000840649129   -0.0700
     25 C25       -14.8078   -2.0230   58.3695 C.3     1  ZINC000840649129   -0.1100
     26 C26       -15.2752   -0.9223   57.4151 C.3     1  ZINC000840649129   -0.1600
     27 C27       -14.7458   -3.3554   57.6199 C.3     1  ZINC000840649129   -0.1500
     28 H28        -8.0368   -1.5241   60.9886 H       1  ZINC000840649129    0.1000
     29 H29        -7.4791   -0.9560   59.3966 H       1  ZINC000840649129    0.0600
     30 H30        -8.5242    0.0820   60.3960 H       1  ZINC000840649129    0.0600
     31 H31        -8.6266    0.7680   58.5461 H       1  ZINC000840649129    0.1400
     32 H32        -9.4760    1.8658   56.5195 H       1  ZINC000840649129    0.1300
     33 H33       -11.0022    1.8069   54.6506 H       1  ZINC000840649129    0.4000
     34 H34       -12.0787    0.5411   54.4024 H       1  ZINC000840649129    0.4000
     35 H35       -12.2132   -1.3550   55.8878 H       1  ZINC000840649129    0.1400
     36 H36       -13.5139    0.7715   59.8604 H       1  ZINC000840649129    0.4200
     37 H37       -15.7817    0.9714   61.7673 H       1  ZINC000840649129    0.1700
     38 H38       -15.9711    1.7641   64.0898 H       1  ZINC000840649129    0.1300
     39 H39       -13.9830    1.8250   65.5382 H       1  ZINC000840649129    0.1300
     40 H40       -11.7987    1.0949   64.6697 H       1  ZINC000840649129    0.1400
     41 H41       -15.5087   -2.1057   59.2001 H       1  ZINC000840649129    0.0900
     42 H42       -14.5127   -0.7524   56.6550 H       1  ZINC000840649129    0.0700
     43 H43       -16.2048   -1.2282   56.9351 H       1  ZINC000840649129    0.0800
     44 H44       -15.4412   -0.0022   57.9753 H       1  ZINC000840649129    0.0600
     45 H45       -14.4127   -4.1397   58.2998 H       1  ZINC000840649129    0.0500
     46 H46       -15.7357   -3.6031   57.2367 H       1  ZINC000840649129    0.0600
     47 H47       -14.0448   -3.2729   56.7893 H       1  ZINC000840649129    0.0700
@<TRIPOS>BOND
     1     1     2    1
     2     1    28    1
     3     1    29    1
     4     1    30    1
     5     2     3    1
     6     3     9   ar
     7     3     4   ar
     8     4     5   ar
     9     4    31    1
    10     5     6   ar
    11     5    32    1
    12     6     7    1
    13     6     8   ar
    14     7    33    1
    15     7    34    1
    16     8     9   ar
    17     8    35    1
    18     9    10    1
    19    10    11    2
    20    10    12    1
    21    12    13    1
    22    13    14    1
    23    13    15    1
    24    13    25    1
    25    15    16    2
    26    15    17   am
    27    17    18    1
    28    17    36    1
    29    18    23   ar
    30    18    19   ar
    31    19    20   ar
    32    19    37    1
    33    20    21   ar
    34    20    38    1
    35    21    22   ar
    36    21    39    1
    37    22    23   ar
    38    22    40    1
    39    23    24    1
    40    25    26    1
    41    25    27    1
    42    25    41    1
    43    26    42    1
    44    26    43    1
    45    26    44    1
    46    27    45    1
    47    27    46    1
    48    27    47    1
@<TRIPOS>SUBSTRUCTURE
     1 ZINC000840649129        1 TEMP              0 ****  ****    0 ROOT


##########                                Name:    ZINC000950547210
##########                DOCK_Rotatable_Bonds:                   5
##########                         Heavy_Atoms:                  25
##########                    Molecular_Weight:              346.47
##########                DOCK_Rotatable_Bonds:                   5
##########                       Formal_Charge:         5.58794e-07
##########                     HBond_Acceptors:                   5
##########                        HBond_Donors:                   1
##########                         Heavy_Atoms:                  25
##########                          Grid_Score:          -24.998798
##########                     Grid_vdw_energy:          -25.271812
##########                      Grid_es_energy:            0.273014
##########           Internal_energy_repulsive:           23.084772

@<TRIPOS>MOLECULE
ZINC000950547210
 55 58 1 0 0
SMALL
USER_CHARGES


@<TRIPOS>ATOM
      1 O1         -2.1264    0.0940   48.6597 O.2     1  ZINC000950547210   -0.5200
      2 C2         -1.3122    0.9741   48.4767 C.2     1  ZINC000950547210    0.5200
      3 N3         -1.3926    2.1228   49.1768 N.am    1  ZINC000950547210   -0.7300
      4 C4         -2.4672    2.3110   50.1547 C.3     1  ZINC000950547210    0.1300
      5 H5         -2.5466    1.4239   50.7831 H       1  ZINC000950547210    0.0900
      6 C6         -2.1560    3.5290   51.0275 C.3     1  ZINC000950547210   -0.1300
      7 C7         -3.2615    3.7070   52.0707 C.3     1  ZINC000950547210   -0.1300
      8 C8         -4.5957    3.9507   51.3585 C.3     1  ZINC000950547210    0.1000
      9 N9         -4.8323    2.8542   50.4096 N.am    1  ZINC000950547210   -0.6100
     10 C10        -5.9818    2.1514   50.4451 C.2     1  ZINC000950547210    0.5600
     11 O11        -6.1657    1.2460   49.6542 O.2     1  ZINC000950547210   -0.5200
     12 C12        -7.0140    2.4793   51.4406 C.2     1  ZINC000950547210   -0.1400
     13 C13        -7.6593    3.6270   51.3360 C.2     1  ZINC000950547210   -0.1500
     14 C14        -8.7220    4.0495   52.3108 C.3     1  ZINC000950547210    0.0900
     15 O15        -9.1559    2.9269   53.0810 O.3     1  ZINC000950547210   -0.3700
     16 C16        -8.0726    2.1932   53.6649 C.3     1  ZINC000950547210    0.0600
     17 C17        -7.3026    1.4935   52.5394 C.3     1  ZINC000950547210   -0.1100
     18 C18        -3.7925    2.5380   49.4208 C.3     1  ZINC000950547210    0.1000
     19 C19        -0.2069    0.7806   47.4708 C.3     1  ZINC000950547210   -0.1000
     20 H20         0.1008   -0.2652   47.4656 H       1  ZINC000950547210    0.1000
     21 C21         0.9860    1.6612   47.8481 C.3     1  ZINC000950547210   -0.1100
     22 C22         1.2790    2.6389   46.7083 C.3     1  ZINC000950547210   -0.0900
     23 C23         1.6058    1.8554   45.4355 C.3     1  ZINC000950547210   -0.1100
     24 C24         0.4130    0.9748   45.0582 C.3     1  ZINC000950547210   -0.1100
     25 C25        -0.7093    1.1713   46.0794 C.3     1  ZINC000950547210   -0.0600
     26 C26        -1.1410    2.6391   46.0867 C.3     1  ZINC000950547210   -0.1300
     27 C27         0.0520    3.5197   46.4640 C.3     1  ZINC000950547210   -0.1200
     28 H28        -0.7390    2.8252   49.0332 H       1  ZINC000950547210    0.4000
     29 H29        -1.2012    3.3799   51.5319 H       1  ZINC000950547210    0.0800
     30 H30        -2.1006    4.4196   50.4016 H       1  ZINC000950547210    0.0700
     31 H31        -3.3340    2.8068   52.6811 H       1  ZINC000950547210    0.0700
     32 H32        -3.0274    4.5606   52.7069 H       1  ZINC000950547210    0.0900
     33 H33        -5.4015    3.9795   52.0919 H       1  ZINC000950547210    0.0900
     34 H34        -4.5549    4.8976   50.8201 H       1  ZINC000950547210    0.0700
     35 H35        -7.4132    4.2880   50.5180 H       1  ZINC000950547210    0.1200
     36 H36        -8.3185    4.8112   52.9778 H       1  ZINC000950547210    0.0700
     37 H37        -9.5699    4.4625   51.7645 H       1  ZINC000950547210    0.1100
     38 H38        -7.4109    2.8775   54.1959 H       1  ZINC000950547210    0.0600
     39 H39        -8.4656    1.4482   54.3567 H       1  ZINC000950547210    0.1000
     40 H40        -7.9000    0.6697   52.1485 H       1  ZINC000950547210    0.0900
     41 H41        -6.3617    1.1059   52.9298 H       1  ZINC000950547210    0.0900
     42 H42        -3.6858    3.3695   48.7242 H       1  ZINC000950547210    0.0700
     43 H43        -4.0688    1.6354   48.8759 H       1  ZINC000950547210    0.1000
     44 H44         0.7532    2.2194   48.7548 H       1  ZINC000950547210    0.0700
     45 H45         1.8602    1.0337   48.0221 H       1  ZINC000950547210    0.0700
     46 H46         2.1288    3.2663   46.9771 H       1  ZINC000950547210    0.0700
     47 H47         1.8145    2.5520   44.6235 H       1  ZINC000950547210    0.0600
     48 H48         2.4800    1.2279   45.6095 H       1  ZINC000950547210    0.0600
     49 H49         0.0550    1.2532   44.0669 H       1  ZINC000950547210    0.0700
     50 H50         0.7205   -0.0709   45.0530 H       1  ZINC000950547210    0.0600
     51 H51        -1.5591    0.5440   45.8106 H       1  ZINC000950547210    0.0800
     52 H52        -1.4989    2.9175   45.0955 H       1  ZINC000950547210    0.0600
     53 H53        -1.9405    2.7792   46.8142 H       1  ZINC000950547210    0.0900
     54 H54        -0.1810    4.0779   47.3708 H       1  ZINC000950547210    0.0600
     55 H55         0.2606    4.2163   45.6520 H       1  ZINC000950547210    0.0600
@<TRIPOS>BOND
     1     1     2    2
     2     2     3   am
     3     2    19    1
     4     3     4    1
     5     3    28    1
     6     4     5    1
     7     4    18    1
     8     4     6    1
     9     6     7    1
    10     6    29    1
    11     6    30    1
    12     7     8    1
    13     7    31    1
    14     7    32    1
    15     8     9    1
    16     8    33    1
    17     8    34    1
    18     9    10   am
    19     9    18    1
    20    10    11    2
    21    10    12    1
    22    12    17    1
    23    12    13    2
    24    13    14    1
    25    13    35    1
    26    14    15    1
    27    14    36    1
    28    14    37    1
    29    15    16    1
    30    16    17    1
    31    16    38    1
    32    16    39    1
    33    17    40    1
    34    17    41    1
    35    18    42    1
    36    18    43    1
    37    19    20    1
    38    19    25    1
    39    19    21    1
    40    21    22    1
    41    21    44    1
    42    21    45    1
    43    22    27    1
    44    22    23    1
    45    22    46    1
    46    23    24    1
    47    23    47    1
    48    23    48    1
    49    24    25    1
    50    24    49    1
    51    24    50    1
    52    25    26    1
    53    25    51    1
    54    26    27    1
    55    26    52    1
    56    26    53    1
    57    27    54    1
    58    27    55    1
@<TRIPOS>SUBSTRUCTURE
     1 ZINC000950547210        1 TEMP              0 ****  ****    0 ROOT


##########                                Name:    ZINC000467104849
##########                DOCK_Rotatable_Bonds:                   6
##########                         Heavy_Atoms:                  29
##########                    Molecular_Weight:             421.896
##########                DOCK_Rotatable_Bonds:                   6
##########                       Formal_Charge:           0.0200002
##########                     HBond_Acceptors:                   7
##########                        HBond_Donors:                   0
##########                         Heavy_Atoms:                  29
##########                          Grid_Score:          -24.943886
##########                     Grid_vdw_energy:          -24.790668
##########                      Grid_es_energy:           -0.153217
##########           Internal_energy_repulsive:           65.305687

@<TRIPOS>MOLECULE
ZINC000467104849
 54 56 1 0 0
SMALL
USER_CHARGES


@<TRIPOS>ATOM
      1 C1        -11.1915   -0.6475   51.3255 C.3     1  ZINC000467104849    0.0200
      2 O2        -11.4617    0.7557   51.3193 O.3     1  ZINC000467104849   -0.3000
      3 C3        -10.5455    1.5635   51.9174 C.ar    1  ZINC000467104849    0.1000
      4 C4         -9.4050    1.0189   52.4844 C.ar    1  ZINC000467104849   -0.1700
      5 C5         -8.4743    1.8416   53.0917 C.ar    1  ZINC000467104849   -0.1200
      6 C6         -8.6791    3.2078   53.1353 C.ar    1  ZINC000467104849   -0.0800
      7 C7         -7.6618    4.0998   53.7990 C.3     1  ZINC000467104849   -0.0400
      8 C8         -7.7953    5.5218   53.2503 C.3     1  ZINC000467104849   -0.1300
      9 C9         -7.9022    4.1115   55.3099 C.3     1  ZINC000467104849   -0.1600
     10 C10        -6.2763    3.5798   53.5147 C.2     1  ZINC000467104849    0.5300
     11 O11        -5.4723    3.4715   54.4163 O.2     1  ZINC000467104849   -0.5300
     12 N12        -5.9305    3.2350   52.2585 N.am    1  ZINC000467104849   -0.6100
     13 C13        -6.8886    3.3575   51.1484 C.3     1  ZINC000467104849    0.0600
     14 C14        -6.2111    4.1247   50.0073 C.3     1  ZINC000467104849    0.0500
     15 O15        -4.9601    3.5042   49.7006 O.3     1  ZINC000467104849   -0.3700
     16 C16        -4.0181    3.5234   50.7758 C.3     1  ZINC000467104849    0.1300
     17 H17        -3.8393    4.5533   51.0849 H       1  ZINC000467104849    0.0800
     18 C18        -2.7227    2.9021   50.3213 C.ar    1  ZINC000467104849   -0.0900
     19 C19        -1.5580    3.6464   50.3342 C.ar    1  ZINC000467104849   -0.0500
     20 C20        -0.3687    3.0782   49.9175 C.ar    1  ZINC000467104849   -0.1400
     21 C21        -0.3437    1.7628   49.4875 C.ar    1  ZINC000467104849    0.1200
     22 F22         0.8181    1.2065   49.0805 F       1  ZINC000467104849   -0.1200
     23 C23        -1.5117    1.0170   49.4752 C.ar    1  ZINC000467104849   -0.0800
     24 Cl24       -1.4830   -0.6330   48.9362 Cl      1  ZINC000467104849   -0.0400
     25 C25        -2.6991    1.5865   49.8970 C.ar    1  ZINC000467104849   -0.0700
     26 C26        -4.5817    2.7307   51.9554 C.3     1  ZINC000467104849    0.0900
     27 C27        -9.8153    3.7580   52.5709 C.ar    1  ZINC000467104849   -0.1600
     28 C28       -10.7491    2.9399   51.9562 C.ar    1  ZINC000467104849    0.1100
     29 O29       -11.8670    3.4794   51.4006 O.3     1  ZINC000467104849   -0.3000
     30 C30       -12.0161    4.8978   51.4898 C.3     1  ZINC000467104849    0.0200
     31 H31       -11.9988   -1.1751   50.8176 H       1  ZINC000467104849    0.1000
     32 H32       -10.2509   -0.8387   50.8090 H       1  ZINC000467104849    0.0600
     33 H33       -11.1187   -0.9990   52.3547 H       1  ZINC000467104849    0.0600
     34 H34        -9.2429   -0.0484   52.4524 H       1  ZINC000467104849    0.1400
     35 H35        -7.5855    1.4158   53.5334 H       1  ZINC000467104849    0.1300
     36 H36        -8.7656    5.9306   53.5326 H       1  ZINC000467104849    0.0700
     37 H37        -7.0036    6.1467   53.6637 H       1  ZINC000467104849    0.0700
     38 H38        -7.7120    5.5013   52.1636 H       1  ZINC000467104849    0.0700
     39 H39        -7.7200    3.1159   55.7145 H       1  ZINC000467104849    0.0700
     40 H40        -7.2248    4.8244   55.7800 H       1  ZINC000467104849    0.0700
     41 H41        -8.9331    4.4026   55.5115 H       1  ZINC000467104849    0.0700
     42 H42        -7.1785    2.3653   50.8024 H       1  ZINC000467104849    0.0800
     43 H43        -7.7713    3.9023   51.4837 H       1  ZINC000467104849    0.1100
     44 H44        -6.8520    4.1071   49.1259 H       1  ZINC000467104849    0.1100
     45 H45        -6.0402    5.1568   50.3135 H       1  ZINC000467104849    0.0600
     46 H46        -1.5773    4.6728   50.6697 H       1  ZINC000467104849    0.1500
     47 H47         0.5408    3.6606   49.9272 H       1  ZINC000467104849    0.1500
     48 H48        -3.6096    1.0057   49.8881 H       1  ZINC000467104849    0.1500
     49 H49        -3.9367    2.8579   52.8248 H       1  ZINC000467104849    0.1100
     50 H50        -4.6411    1.6745   51.6931 H       1  ZINC000467104849    0.0800
     51 H51        -9.9730    4.8258   52.6061 H       1  ZINC000467104849    0.1400
     52 H52       -12.0370    5.1957   52.5382 H       1  ZINC000467104849    0.0600
     53 H53       -11.1774    5.3834   50.9908 H       1  ZINC000467104849    0.0600
     54 H54       -12.9474    5.1963   51.0086 H       1  ZINC000467104849    0.1000
@<TRIPOS>BOND
     1     1     2    1
     2     1    31    1
     3     1    32    1
     4     1    33    1
     5     2     3    1
     6     3    28   ar
     7     3     4   ar
     8     4     5   ar
     9     4    34    1
    10     5     6   ar
    11     5    35    1
    12     6     7    1
    13     6    27   ar
    14     7     8    1
    15     7     9    1
    16     7    10    1
    17     8    36    1
    18     8    37    1
    19     8    38    1
    20     9    39    1
    21     9    40    1
    22     9    41    1
    23    10    11    2
    24    10    12   am
    25    12    26    1
    26    12    13    1
    27    13    14    1
    28    13    42    1
    29    13    43    1
    30    14    15    1
    31    14    44    1
    32    14    45    1
    33    15    16    1
    34    16    17    1
    35    16    18    1
    36    16    26    1
    37    18    25   ar
    38    18    19   ar
    39    19    20   ar
    40    19    46    1
    41    20    21   ar
    42    20    47    1
    43    21    22    1
    44    21    23   ar
    45    23    24    1
    46    23    25   ar
    47    25    48    1
    48    26    49    1
    49    26    50    1
    50    27    28   ar
    51    27    51    1
    52    28    29    1
    53    29    30    1
    54    30    52    1
    55    30    53    1
    56    30    54    1
@<TRIPOS>SUBSTRUCTURE
     1 ZINC000467104849        1 TEMP              0 ****  ****    0 ROOT


##########                                Name:    ZINC000080099940
##########                DOCK_Rotatable_Bonds:                   4
##########                         Heavy_Atoms:                  26
##########                    Molecular_Weight:             343.388
##########                DOCK_Rotatable_Bonds:                   4
##########                       Formal_Charge:        -3.42727e-07
##########                     HBond_Acceptors:                   6
##########                        HBond_Donors:                   1
##########                         Heavy_Atoms:                  26
##########                          Grid_Score:          -24.931351
##########                     Grid_vdw_energy:          -26.207006
##########                      Grid_es_energy:            1.275656
##########           Internal_energy_repulsive:            5.514132

@<TRIPOS>MOLECULE
ZINC000080099940
 43 46 1 0 0
SMALL
USER_CHARGES


@<TRIPOS>ATOM
      1 C1        -16.7353    0.0620   56.2210 C.3     1  ZINC000080099940   -0.1100
      2 C2        -15.3636   -0.3432   55.7460 C.2     1  ZINC000080099940   -0.0700
      3 C3        -14.5900    0.5399   55.0593 C.2     1  ZINC000080099940   -0.0900
      4 C4        -13.3094    0.1429   54.6227 C.2     1  ZINC000080099940    0.2300
      5 N5        -12.3634    0.7806   53.9492 N.2     1  ZINC000080099940   -0.4800
      6 C6        -11.3154   -0.0409   53.7788 C.2     1  ZINC000080099940    0.1000
      7 C7        -10.0533    0.2952   53.0748 C.ar    1  ZINC000080099940   -0.0200
      8 C8         -9.5604    1.5986   53.1097 C.ar    1  ZINC000080099940   -0.0800
      9 C9         -8.3872    1.9086   52.4552 C.ar    1  ZINC000080099940   -0.1200
     10 C10        -7.6963    0.9227   51.7605 C.ar    1  ZINC000080099940    0.1500
     11 N11        -6.5075    1.2393   51.0974 N.am    1  ZINC000080099940   -0.6500
     12 C12        -5.4971    1.8265   51.7688 C.2     1  ZINC000080099940    0.5700
     13 O13        -5.6197    2.0806   52.9505 O.2     1  ZINC000080099940   -0.5000
     14 C14        -4.2348    2.1627   51.0646 C.ar    1  ZINC000080099940    0.1300
     15 C15        -4.0825    1.8782   49.7072 C.ar    1  ZINC000080099940   -0.1700
     16 C16        -2.8822    2.2133   49.0962 C.ar    1  ZINC000080099940    0.1600
     17 N17        -1.9319    2.7860   49.8146 N.ar    1  ZINC000080099940   -0.5000
     18 C18        -2.1089    3.0413   51.0966 C.ar    1  ZINC000080099940    0.3200
     19 C19        -0.9951    3.6958   51.8727 C.3     1  ZINC000080099940   -0.0900
     20 N20        -3.2311    2.7459   51.7162 N.ar    1  ZINC000080099940   -0.5000
     21 C21        -8.1858   -0.3777   51.7247 C.ar    1  ZINC000080099940   -0.1400
     22 C22        -9.3558   -0.6932   52.3823 C.ar    1  ZINC000080099940   -0.0700
     23 C23       -11.6090   -1.2358   54.3637 C.2     1  ZINC000080099940   -0.0900
     24 N24       -12.8632   -1.1247   54.8962 N.pl3   1  ZINC000080099940   -0.3600
     25 C25       -13.6505   -2.0007   55.5866 C.2     1  ZINC000080099940    0.0600
     26 C26       -14.8760   -1.6327   56.0155 C.2     1  ZINC000080099940   -0.1400
     27 H27       -17.1967   -0.7709   56.7516 H       1  ZINC000080099940    0.0700
     28 H28       -16.6498    0.9172   56.8913 H       1  ZINC000080099940    0.0800
     29 H29       -17.3515    0.3325   55.3635 H       1  ZINC000080099940    0.0800
     30 H30       -14.9533    1.5353   54.8500 H       1  ZINC000080099940    0.1500
     31 H31       -10.0972    2.3651   53.6488 H       1  ZINC000080099940    0.1300
     32 H32        -8.0049    2.9183   52.4821 H       1  ZINC000080099940    0.1400
     33 H33        -6.4096    1.0364   50.1539 H       1  ZINC000080099940    0.4200
     34 H34        -4.8775    1.4089   49.1468 H       1  ZINC000080099940    0.1600
     35 H35        -2.7266    2.0086   48.0472 H       1  ZINC000080099940    0.1800
     36 H36        -1.1055    4.7790   51.8233 H       1  ZINC000080099940    0.0900
     37 H37        -1.0388    3.3732   52.9130 H       1  ZINC000080099940    0.0900
     38 H38        -0.0353    3.4084   51.4432 H       1  ZINC000080099940    0.0900
     39 H39        -7.6474   -1.1422   51.1844 H       1  ZINC000080099940    0.1300
     40 H40        -9.7356   -1.7039   52.3545 H       1  ZINC000080099940    0.1400
     41 H41       -10.9714   -2.1067   54.3995 H       1  ZINC000080099940    0.1900
     42 H42       -13.2873   -2.9960   55.7955 H       1  ZINC000080099940    0.1700
     43 H43       -15.4882   -2.3357   56.5610 H       1  ZINC000080099940    0.1500
@<TRIPOS>BOND
     1     1     2    1
     2     1    27    1
     3     1    28    1
     4     1    29    1
     5     2    26    1
     6     2     3    2
     7     3     4    1
     8     3    30    1
     9     4    24    1
    10     4     5    2
    11     5     6    1
    12     6     7    1
    13     6    23    2
    14     7    22   ar
    15     7     8   ar
    16     8     9   ar
    17     8    31    1
    18     9    10   ar
    19     9    32    1
    20    10    11    1
    21    10    21   ar
    22    11    12   am
    23    11    33    1
    24    12    13    2
    25    12    14    1
    26    14    20   ar
    27    14    15   ar
    28    15    16   ar
    29    15    34    1
    30    16    17   ar
    31    16    35    1
    32    17    18   ar
    33    18    19    1
    34    18    20   ar
    35    19    36    1
    36    19    37    1
    37    19    38    1
    38    21    22   ar
    39    21    39    1
    40    22    40    1
    41    23    24    1
    42    23    41    1
    43    24    25    1
    44    25    26    2
    45    25    42    1
    46    26    43    1
@<TRIPOS>SUBSTRUCTURE
     1 ZINC000080099940        1 TEMP              0 ****  ****    0 ROOT


##########                                Name:    ZINC000521663393
##########                DOCK_Rotatable_Bonds:                   5
##########                         Heavy_Atoms:                  27
##########                    Molecular_Weight:              386.49
##########                DOCK_Rotatable_Bonds:                   5
##########                       Formal_Charge:               -0.02
##########                     HBond_Acceptors:                   6
##########                        HBond_Donors:                   1
##########                         Heavy_Atoms:                  27
##########                          Grid_Score:          -24.908121
##########                     Grid_vdw_energy:          -25.382360
##########                      Grid_es_energy:            0.474239
##########           Internal_energy_repulsive:           18.403088

@<TRIPOS>MOLECULE
ZINC000521663393
 50 53 1 0 0
SMALL
USER_CHARGES


@<TRIPOS>ATOM
      1 C1        -11.5671    3.2559   53.9527 C.3     1  ZINC000521663393   -0.1500
      2 C2        -10.2318    2.5103   53.9063 C.3     1  ZINC000521663393    0.0800
      3 H3         -9.7309    2.5581   54.8732 H       1  ZINC000521663393    0.0900
      4 O4         -9.3886    3.0399   52.8692 O.3     1  ZINC000521663393   -0.2900
      5 C5         -8.6451    2.0314   52.3371 C.ar    1  ZINC000521663393    0.1400
      6 C6         -7.4728    2.0863   51.5882 C.ar    1  ZINC000521663393   -0.1800
      7 C7         -6.8826    0.9224   51.1337 C.ar    1  ZINC000521663393    0.1400
      8 F8         -5.7454    0.9843   50.4070 F       1  ZINC000521663393   -0.1300
      9 C9         -7.4515   -0.3072   51.4200 C.ar    1  ZINC000521663393   -0.1800
     10 C10        -8.6140   -0.3683   52.1678 C.ar    1  ZINC000521663393   -0.0200
     11 C11        -9.2012    0.7908   52.6240 C.ar    1  ZINC000521663393   -0.2000
     12 C12       -10.4394    1.0412   53.4684 C.3     1  ZINC000521663393    0.1700
     13 H13       -11.3454    0.9364   52.8718 H       1  ZINC000521663393    0.1200
     14 N14       -10.4723    0.1458   54.6274 N.am    1  ZINC000521663393   -0.7200
     15 C15       -11.5937   -0.5451   54.9136 C.2     1  ZINC000521663393    0.5300
     16 O16       -12.5749   -0.4267   54.2106 O.2     1  ZINC000521663393   -0.5000
     17 C17       -11.6282   -1.4648   56.1069 C.3     1  ZINC000521663393    0.1200
     18 H18       -11.0577   -2.3671   55.8869 H       1  ZINC000521663393    0.0700
     19 C19       -11.0236   -0.7659   57.2973 C.ar    1  ZINC000521663393   -0.0900
     20 C20       -10.2825   -1.4837   58.2174 C.ar    1  ZINC000521663393   -0.0900
     21 C21        -9.7279   -0.8427   59.3093 C.ar    1  ZINC000521663393   -0.1200
     22 C22        -9.9140    0.5163   59.4810 C.ar    1  ZINC000521663393   -0.1100
     23 C23       -10.6543    1.2343   58.5605 C.ar    1  ZINC000521663393   -0.1200
     24 C24       -11.2053    0.5940   57.4663 C.ar    1  ZINC000521663393   -0.1100
     25 N25       -13.0202   -1.8264   56.4064 N.3     1  ZINC000521663393   -0.5300
     26 C26       -13.7647   -0.6722   56.9149 C.3     1  ZINC000521663393    0.0500
     27 C27       -15.2706   -0.9330   56.8018 C.3     1  ZINC000521663393   -0.0700
     28 S28       -15.6861   -2.3728   57.8328 S.3     1  ZINC000521663393   -0.2700
     29 C29       -14.4771   -3.6057   57.2610 C.3     1  ZINC000521663393   -0.0700
     30 C30       -13.0805   -2.9769   57.3109 C.3     1  ZINC000521663393    0.0600
     31 H31       -12.2155    2.7940   54.6973 H       1  ZINC000521663393    0.0800
     32 H32       -11.3922    4.2981   54.2196 H       1  ZINC000521663393    0.0800
     33 H33       -12.0449    3.2066   52.9742 H       1  ZINC000521663393    0.0700
     34 H34        -7.0233    3.0418   51.3614 H       1  ZINC000521663393    0.1400
     35 H35        -6.9898   -1.2150   51.0607 H       1  ZINC000521663393    0.1400
     36 H36        -9.0609   -1.3252   52.3937 H       1  ZINC000521663393    0.1300
     37 H37        -9.6873    0.0501   55.1890 H       1  ZINC000521663393    0.4000
     38 H38       -10.1371   -2.5454   58.0832 H       1  ZINC000521663393    0.1300
     39 H39        -9.1495   -1.4036   60.0285 H       1  ZINC000521663393    0.1300
     40 H40        -9.4812    1.0170   60.3345 H       1  ZINC000521663393    0.1200
     41 H41       -10.8000    2.2959   58.6948 H       1  ZINC000521663393    0.1300
     42 H42       -11.7837    1.1550   56.7470 H       1  ZINC000521663393    0.1200
     43 H43       -13.5036   -0.5046   57.9598 H       1  ZINC000521663393    0.0500
     44 H44       -13.5054    0.2116   56.3319 H       1  ZINC000521663393    0.1000
     45 H45       -15.8208   -0.0601   57.1529 H       1  ZINC000521663393    0.1100
     46 H46       -15.5294   -1.1392   55.7632 H       1  ZINC000521663393    0.0900
     47 H47       -14.5090   -4.4792   57.9122 H       1  ZINC000521663393    0.1100
     48 H48       -14.7101   -3.8996   56.2376 H       1  ZINC000521663393    0.1000
     49 H49       -12.3395   -3.7160   57.0067 H       1  ZINC000521663393    0.0800
     50 H50       -12.8670   -2.6493   58.3283 H       1  ZINC000521663393    0.0500
@<TRIPOS>BOND
     1     1     2    1
     2     1    31    1
     3     1    32    1
     4     1    33    1
     5     2     3    1
     6     2    12    1
     7     2     4    1
     8     4     5    1
     9     5    11   ar
    10     5     6   ar
    11     6     7   ar
    12     6    34    1
    13     7     8    1
    14     7     9   ar
    15     9    10   ar
    16     9    35    1
    17    10    11   ar
    18    10    36    1
    19    11    12    1
    20    12    13    1
    21    12    14    1
    22    14    15   am
    23    14    37    1
    24    15    16    2
    25    15    17    1
    26    17    18    1
    27    17    19    1
    28    17    25    1
    29    19    24   ar
    30    19    20   ar
    31    20    21   ar
    32    20    38    1
    33    21    22   ar
    34    21    39    1
    35    22    23   ar
    36    22    40    1
    37    23    24   ar
    38    23    41    1
    39    24    42    1
    40    25    30    1
    41    25    26    1
    42    26    27    1
    43    26    43    1
    44    26    44    1
    45    27    28    1
    46    27    45    1
    47    27    46    1
    48    28    29    1
    49    29    30    1
    50    29    47    1
    51    29    48    1
    52    30    49    1
    53    30    50    1
@<TRIPOS>SUBSTRUCTURE
     1 ZINC000521663393        1 TEMP              0 ****  ****    0 ROOT


##########                                Name:    ZINC001018118384
##########                DOCK_Rotatable_Bonds:                   5
##########                         Heavy_Atoms:                  25
##########                    Molecular_Weight:             347.374
##########                DOCK_Rotatable_Bonds:                   5
##########                       Formal_Charge:           0.0299997
##########                     HBond_Acceptors:                   9
##########                        HBond_Donors:                   2
##########                         Heavy_Atoms:                  25
##########                          Grid_Score:          -24.873997
##########                     Grid_vdw_energy:          -23.465214
##########                      Grid_es_energy:           -1.408783
##########           Internal_energy_repulsive:           96.797333

@<TRIPOS>MOLECULE
ZINC001018118384
 46 48 1 0 0
SMALL
USER_CHARGES


@<TRIPOS>ATOM
      1 C1         -9.3382    0.5955   62.5889 C.3     1  ZINC001018118384   -0.0700
      2 C2         -9.2600   -0.0577   61.2331 C.2     1  ZINC001018118384    0.2200
      3 N3        -10.0319    0.2096   60.2196 N.2     1  ZINC001018118384   -0.4600
      4 C4         -9.6670   -0.5723   59.1715 C.2     1  ZINC001018118384   -0.0700
      5 C5        -10.2865   -0.5819   57.8349 C.2     1  ZINC001018118384    0.6100
      6 O6         -9.9830    0.2664   57.0179 O.2     1  ZINC001018118384   -0.5400
      7 N7        -11.1896   -1.5307   57.5176 N.am    1  ZINC001018118384   -0.5900
      8 C8        -11.5709   -2.5584   58.4959 C.3     1  ZINC001018118384    0.0700
      9 C9        -13.0962   -2.5626   58.6374 C.3     1  ZINC001018118384    0.1300
     10 H10       -13.3990   -3.3838   59.2871 H       1  ZINC001018118384    0.1100
     11 N11       -13.5369   -1.2918   59.2180 N.am    1  ZINC001018118384   -0.7000
     12 C12       -13.6363   -1.1605   60.5556 C.2     1  ZINC001018118384    0.6000
     13 O13       -13.3618   -2.0964   61.2800 O.2     1  ZINC001018118384   -0.4900
     14 C14       -14.0804    0.1257   61.1430 C.2     1  ZINC001018118384    0.0300
     15 C15       -13.9176    0.5230   62.4368 C.2     1  ZINC001018118384   -0.2300
     16 C16       -14.5113    1.8159   62.4776 C.2     1  ZINC001018118384    0.4800
     17 O17       -14.5971    2.5569   63.4427 O.2     1  ZINC001018118384   -0.5200
     18 N18       -14.9583    2.0519   61.2277 N.am    1  ZINC001018118384   -0.4500
     19 C19       -15.6434    3.2767   60.8072 C.3     1  ZINC001018118384    0.1100
     20 O20       -14.7124    1.1187   60.4990 O.3     1  ZINC001018118384    0.0000
     21 C21       -13.7322   -2.7422   57.2570 C.3     1  ZINC001018118384   -0.1300
     22 C22       -13.3340   -1.5724   56.3541 C.3     1  ZINC001018118384   -0.1300
     23 C23       -11.8160   -1.5534   56.1887 C.3     1  ZINC001018118384    0.1400
     24 H24       -11.4952   -2.4482   55.6552 H       1  ZINC001018118384    0.0700
     25 C25       -11.4015   -0.3097   55.3997 C.3     1  ZINC001018118384   -0.1400
     26 C26        -8.6218   -1.3474   59.5814 C.2     1  ZINC001018118384    0.0400
     27 N27        -8.3687   -1.0163   60.8696 N.pl3   1  ZINC001018118384   -0.5600
     28 H28        -8.7021    1.4806   62.6030 H       1  ZINC001018118384    0.0900
     29 H29       -10.3688    0.8856   62.7936 H       1  ZINC001018118384    0.1000
     30 H30        -9.0002   -0.1070   63.3507 H       1  ZINC001018118384    0.0800
     31 H31       -11.2333   -3.5354   58.1500 H       1  ZINC001018118384    0.0800
     32 H32       -11.1150   -2.3322   59.4599 H       1  ZINC001018118384    0.1500
     33 H33       -13.7572   -0.5449   58.6396 H       1  ZINC001018118384    0.4100
     34 H34       -13.4473   -0.0185   63.2443 H       1  ZINC001018118384    0.1900
     35 H35       -14.9087    4.0027   60.4592 H       1  ZINC001018118384    0.0800
     36 H36       -16.3372    3.0457   59.9988 H       1  ZINC001018118384    0.0900
     37 H37       -16.1941    3.6928   61.6508 H       1  ZINC001018118384    0.1100
     38 H38       -13.3844   -3.6762   56.8158 H       1  ZINC001018118384    0.0900
     39 H39       -14.8171   -2.7702   57.3580 H       1  ZINC001018118384    0.0800
     40 H40       -13.8062   -1.6888   55.3785 H       1  ZINC001018118384    0.0800
     41 H41       -13.6598   -0.6360   56.8069 H       1  ZINC001018118384    0.0600
     42 H42       -11.7362    0.5834   55.9273 H       1  ZINC001018118384    0.0700
     43 H43       -10.3163   -0.2876   55.3000 H       1  ZINC001018118384    0.0800
     44 H44       -11.8568   -0.3389   54.4098 H       1  ZINC001018118384    0.0400
     45 H45        -8.0943   -2.0812   58.9902 H       1  ZINC001018118384    0.1900
     46 H46        -7.6790   -1.3996   61.4337 H       1  ZINC001018118384    0.4300
@<TRIPOS>BOND
     1     1     2    1
     2     1    28    1
     3     1    29    1
     4     1    30    1
     5     2    27    1
     6     2     3    2
     7     3     4    1
     8     4     5    1
     9     4    26    2
    10     5     6    2
    11     5     7   am
    12     7    23    1
    13     7     8    1
    14     8     9    1
    15     8    31    1
    16     8    32    1
    17     9    10    1
    18     9    11    1
    19     9    21    1
    20    11    12   am
    21    11    33    1
    22    12    13    2
    23    12    14    1
    24    14    20    1
    25    14    15    2
    26    15    16    1
    27    15    34    1
    28    16    17    2
    29    16    18   am
    30    18    19    1
    31    18    20    1
    32    19    35    1
    33    19    36    1
    34    19    37    1
    35    21    22    1
    36    21    38    1
    37    21    39    1
    38    22    23    1
    39    22    40    1
    40    22    41    1
    41    23    24    1
    42    23    25    1
    43    25    42    1
    44    25    43    1
    45    25    44    1
    46    26    27    1
    47    26    45    1
    48    27    46    1
@<TRIPOS>SUBSTRUCTURE
     1 ZINC001018118384        1 TEMP              0 ****  ****    0 ROOT


##########                                Name:    ZINC000845755710
##########                DOCK_Rotatable_Bonds:                   3
##########                         Heavy_Atoms:                  24
##########                    Molecular_Weight:             349.814
##########                DOCK_Rotatable_Bonds:                   3
##########                       Formal_Charge:         -0.00999974
##########                     HBond_Acceptors:                   6
##########                        HBond_Donors:                   0
##########                         Heavy_Atoms:                  24
##########                          Grid_Score:          -24.864958
##########                     Grid_vdw_energy:          -25.041481
##########                      Grid_es_energy:            0.176524
##########           Internal_energy_repulsive:           17.818785

@<TRIPOS>MOLECULE
ZINC000845755710
 44 47 1 0 0
SMALL
USER_CHARGES


@<TRIPOS>ATOM
      1 C1          1.2248    3.8733   43.8934 C.3     1  ZINC000845755710   -0.1700
      2 C2          1.5853    2.5297   44.5305 C.3     1  ZINC000845755710    0.2600
      3 C3          0.3332    1.8989   45.1430 C.3     1  ZINC000845755710   -0.0900
      4 C4          0.6959    0.5503   45.7690 C.3     1  ZINC000845755710   -0.1300
      5 C5         -0.5663   -0.0940   46.3506 C.3     1  ZINC000845755710    0.1100
      6 N6         -1.1953    0.8534   47.2809 N.am    1  ZINC000845755710   -0.6000
      7 C7         -1.4834    0.4858   48.5452 C.2     1  ZINC000845755710    0.5900
      8 O8         -1.2227   -0.6400   48.9256 O.2     1  ZINC000845755710   -0.5200
      9 C9         -2.1131    1.4454   49.4647 C.2     1  ZINC000845755710   -0.2200
     10 C10        -3.4106    1.4610   49.8738 C.2     1  ZINC000845755710    0.0600
     11 O11        -3.6108    2.4849   50.7117 O.3     1  ZINC000845755710   -0.1800
     12 C12        -2.4780    3.1928   50.9017 C.ar    1  ZINC000845755710    0.0500
     13 C13        -2.1770    4.3165   51.6611 C.ar    1  ZINC000845755710   -0.0900
     14 C14        -0.8969    4.8286   51.6569 C.ar    1  ZINC000845755710   -0.0800
     15 C15         0.1006    4.2324   50.8988 C.ar    1  ZINC000845755710   -0.0400
     16 Cl16        1.7059    4.8933   50.9069 Cl      1  ZINC000845755710   -0.0600
     17 C17        -0.1799    3.1154   50.1387 C.ar    1  ZINC000845755710   -0.0500
     18 C18        -1.4667    2.5882   50.1407 C.ar    1  ZINC000845755710   -0.0900
     19 C19        -1.5036    2.2095   46.8071 C.3     1  ZINC000845755710    0.1000
     20 C20        -0.2309    2.8281   46.2202 C.3     1  ZINC000845755710   -0.1300
     21 O21         2.1257    1.6503   43.5300 O.3     1  ZINC000845755710   -0.3700
     22 C22         3.5614    1.8010   43.6409 C.3     1  ZINC000845755710    0.0100
     23 C23         3.7420    1.9783   45.1692 C.3     1  ZINC000845755710    0.0200
     24 O24         2.5722    2.7300   45.5509 O.3     1  ZINC000845755710   -0.3800
     25 H25         2.1194    4.3229   43.4627 H       1  ZINC000845755710    0.0600
     26 H26         0.4836    3.7164   43.1096 H       1  ZINC000845755710    0.0800
     27 H27         0.8143    4.5375   44.6539 H       1  ZINC000845755710    0.0800
     28 H28        -0.4152    1.7484   44.3650 H       1  ZINC000845755710    0.0900
     29 H29         1.1193   -0.1029   45.0060 H       1  ZINC000845755710    0.0800
     30 H30         1.4260    0.7028   46.5639 H       1  ZINC000845755710    0.0800
     31 H31        -1.2609   -0.3300   45.5444 H       1  ZINC000845755710    0.0700
     32 H32        -0.2985   -1.0063   46.8838 H       1  ZINC000845755710    0.1000
     33 H33        -4.1663    0.7527   49.5678 H       1  ZINC000845755710    0.2200
     34 H34        -2.9458    4.7892   52.2544 H       1  ZINC000845755710    0.1500
     35 H35        -0.6684    5.7023   52.2491 H       1  ZINC000845755710    0.1500
     36 H36         0.5964    2.6512   49.5485 H       1  ZINC000845755710    0.1400
     37 H37        -2.2746    2.1614   46.0380 H       1  ZINC000845755710    0.0800
     38 H38        -1.8542    2.8173   47.6412 H       1  ZINC000845755710    0.0900
     39 H39         0.5078    2.9591   47.0110 H       1  ZINC000845755710    0.0700
     40 H40        -0.4671    3.7961   45.7785 H       1  ZINC000845755710    0.0800
     41 H41         4.0759    0.9071   43.2882 H       1  ZINC000845755710    0.1100
     42 H42         3.9038    2.6846   43.1024 H       1  ZINC000845755710    0.0800
     43 H43         3.7582    1.0103   45.6701 H       1  ZINC000845755710    0.0800
     44 H44         4.6496    2.5412   45.3871 H       1  ZINC000845755710    0.1000
@<TRIPOS>BOND
     1     1     2    1
     2     1    25    1
     3     1    26    1
     4     1    27    1
     5     2    24    1
     6     2     3    1
     7     2    21    1
     8     3    20    1
     9     3     4    1
    10     3    28    1
    11     4     5    1
    12     4    29    1
    13     4    30    1
    14     5     6    1
    15     5    31    1
    16     5    32    1
    17     6     7   am
    18     6    19    1
    19     7     8    2
    20     7     9    1
    21     9    18    1
    22     9    10    2
    23    10    11    1
    24    10    33    1
    25    11    12    1
    26    12    18   ar
    27    12    13   ar
    28    13    14   ar
    29    13    34    1
    30    14    15   ar
    31    14    35    1
    32    15    16    1
    33    15    17   ar
    34    17    18   ar
    35    17    36    1
    36    19    20    1
    37    19    37    1
    38    19    38    1
    39    20    39    1
    40    20    40    1
    41    21    22    1
    42    22    23    1
    43    22    41    1
    44    22    42    1
    45    23    24    1
    46    23    43    1
    47    23    44    1
@<TRIPOS>SUBSTRUCTURE
     1 ZINC000845755710        1 TEMP              0 ****  ****    0 ROOT


##########                                Name:    ZINC000331626032
##########                DOCK_Rotatable_Bonds:                   5
##########                         Heavy_Atoms:                  25
##########                    Molecular_Weight:              339.44
##########                DOCK_Rotatable_Bonds:                   5
##########                       Formal_Charge:        -2.16067e-07
##########                     HBond_Acceptors:                   6
##########                        HBond_Donors:                   2
##########                         Heavy_Atoms:                  25
##########                          Grid_Score:          -24.827629
##########                     Grid_vdw_energy:          -24.379995
##########                      Grid_es_energy:           -0.447633
##########           Internal_energy_repulsive:           26.743204

@<TRIPOS>MOLECULE
ZINC000331626032
 50 52 1 0 0
SMALL
USER_CHARGES


@<TRIPOS>ATOM
      1 C1         -8.3851   -0.6222   61.5528 C.3     1  ZINC000331626032   -0.2000
      2 C2         -9.2409    0.5511   61.0714 C.3     1  ZINC000331626032    0.0700
      3 H3         -9.0726    1.4127   61.7175 H       1  ZINC000331626032    0.1100
      4 C4         -8.8607    0.9028   59.6562 C.2     1  ZINC000331626032    0.5200
      5 O5         -8.6714    0.0232   58.8428 O.2     1  ZINC000331626032   -0.5000
      6 N6         -8.7310    2.1945   59.2944 N.am    1  ZINC000331626032   -0.5800
      7 C7         -8.9595    3.2568   60.2768 C.3     1  ZINC000331626032    0.0800
      8 C8         -8.3779    2.5209   57.9803 C.ar    1  ZINC000331626032    0.1400
      9 C9         -7.0662    2.3628   57.5525 C.ar    1  ZINC000331626032   -0.1000
     10 C10        -6.7209    2.6858   56.2548 C.ar    1  ZINC000331626032   -0.1100
     11 C11        -7.6796    3.1668   55.3821 C.ar    1  ZINC000331626032   -0.1200
     12 C12        -8.9865    3.3258   55.8051 C.ar    1  ZINC000331626032   -0.1100
     13 C13        -9.3396    2.9982   57.0994 C.ar    1  ZINC000331626032   -0.1200
     14 N14       -10.6598    0.1738   61.1179 N.3     1  ZINC000331626032   -0.5100
     15 C15       -11.5186    1.3629   61.1876 C.3     1  ZINC000331626032    0.0500
     16 C16       -12.9742    0.9320   61.3810 C.3     1  ZINC000331626032   -0.1100
     17 C17       -13.3978    0.0416   60.2096 C.3     1  ZINC000331626032   -0.1100
     18 C18       -12.4578   -1.1644   60.1296 C.3     1  ZINC000331626032   -0.0400
     19 H19       -12.5436   -1.7539   61.0424 H       1  ZINC000331626032    0.1000
     20 C20       -12.8317   -2.0161   58.9438 C.ar    1  ZINC000331626032    0.2300
     21 C21       -13.8553   -2.9450   59.0426 C.ar    1  ZINC000331626032   -0.2900
     22 C22       -14.1674   -3.7083   57.9282 C.ar    1  ZINC000331626032    0.1900
     23 N23       -13.4832   -3.5283   56.8107 N.ar    1  ZINC000331626032   -0.5700
     24 C24       -12.5099   -2.6312   56.7496 C.ar    1  ZINC000331626032    0.5700
     25 N25       -11.8145   -2.4686   55.5639 N.pl3   1  ZINC000331626032   -0.8200
     26 N26       -12.1904   -1.8822   57.7945 N.ar    1  ZINC000331626032   -0.5700
     27 C27       -11.0171   -0.6728   59.9724 C.3     1  ZINC000331626032    0.0700
     28 H28        -8.5533   -1.4838   60.9067 H       1  ZINC000331626032    0.0700
     29 H29        -7.3322   -0.3423   61.5183 H       1  ZINC000331626032    0.0800
     30 H30        -8.6601   -0.8766   62.5765 H       1  ZINC000331626032    0.0700
     31 H31        -8.0224    3.4935   60.7808 H       1  ZINC000331626032    0.0600
     32 H32        -9.3341    4.1462   59.7699 H       1  ZINC000331626032    0.0800
     33 H33        -9.6921    2.9214   61.0109 H       1  ZINC000331626032    0.0800
     34 H34        -6.3168    1.9878   58.2339 H       1  ZINC000331626032    0.1200
     35 H35        -5.7010    2.5631   55.9216 H       1  ZINC000331626032    0.1300
     36 H36        -7.4070    3.4189   54.3679 H       1  ZINC000331626032    0.1300
     37 H37        -9.7328    3.7023   55.1212 H       1  ZINC000331626032    0.1300
     38 H38       -10.3604    3.1227   57.4293 H       1  ZINC000331626032    0.1200
     39 H39       -11.2095    1.9855   62.0273 H       1  ZINC000331626032    0.0900
     40 H40       -11.4280    1.9311   60.2618 H       1  ZINC000331626032    0.0300
     41 H41       -13.0682    0.3756   62.3136 H       1  ZINC000331626032    0.0800
     42 H42       -13.6132    1.8143   61.4171 H       1  ZINC000331626032    0.0700
     43 H43       -14.4201   -0.3030   60.3649 H       1  ZINC000331626032    0.0700
     44 H44       -13.3410    0.6098   59.2810 H       1  ZINC000331626032    0.0700
     45 H45       -14.3979   -3.0719   59.9678 H       1  ZINC000331626032    0.1400
     46 H46       -14.9594   -4.4412   57.9720 H       1  ZINC000331626032    0.1700
     47 H47       -12.0418   -3.0080   54.7904 H       1  ZINC000331626032    0.4100
     48 H48       -11.0999   -1.8153   55.5065 H       1  ZINC000331626032    0.4100
     49 H49       -10.9289   -0.0950   59.0523 H       1  ZINC000331626032    0.0400
     50 H50       -10.3437   -1.5289   59.9295 H       1  ZINC000331626032    0.0800
@<TRIPOS>BOND
     1     1     2    1
     2     1    28    1
     3     1    29    1
     4     1    30    1
     5     2     3    1
     6     2     4    1
     7     2    14    1
     8     4     5    2
     9     4     6   am
    10     6     7    1
    11     6     8    1
    12     7    31    1
    13     7    32    1
    14     7    33    1
    15     8    13   ar
    16     8     9   ar
    17     9    10   ar
    18     9    34    1
    19    10    11   ar
    20    10    35    1
    21    11    12   ar
    22    11    36    1
    23    12    13   ar
    24    12    37    1
    25    13    38    1
    26    14    27    1
    27    14    15    1
    28    15    16    1
    29    15    39    1
    30    15    40    1
    31    16    17    1
    32    16    41    1
    33    16    42    1
    34    17    18    1
    35    17    43    1
    36    17    44    1
    37    18    19    1
    38    18    20    1
    39    18    27    1
    40    20    26   ar
    41    20    21   ar
    42    21    22   ar
    43    21    45    1
    44    22    23   ar
    45    22    46    1
    46    23    24   ar
    47    24    25    1
    48    24    26   ar
    49    25    47    1
    50    25    48    1
    51    27    49    1
    52    27    50    1
@<TRIPOS>SUBSTRUCTURE
     1 ZINC000331626032        1 TEMP              0 ****  ****    0 ROOT


##########                                Name:    ZINC001231746020
##########                DOCK_Rotatable_Bonds:                   3
##########                         Heavy_Atoms:                  19
##########                    Molecular_Weight:             348.667
##########                DOCK_Rotatable_Bonds:                   3
##########                       Formal_Charge:          -0.0399997
##########                     HBond_Acceptors:                   4
##########                        HBond_Donors:                   2
##########                         Heavy_Atoms:                  19
##########                          Grid_Score:          -24.787451
##########                     Grid_vdw_energy:          -18.617243
##########                      Grid_es_energy:           -6.170208
##########           Internal_energy_repulsive:           10.212585

@<TRIPOS>MOLECULE
ZINC001231746020
 38 39 1 0 0
SMALL
USER_CHARGES


@<TRIPOS>ATOM
      1 C1         -8.5604    1.6924   58.3249 C.3     1  ZINC001231746020   -0.1500
      2 C2         -9.4867    0.8018   59.1553 C.3     1  ZINC001231746020   -0.0900
      3 H3        -10.3113    1.3973   59.5471 H       1  ZINC001231746020    0.0800
      4 C4        -10.0297   -0.3053   58.2918 C.3     1  ZINC001231746020   -0.1400
      5 C5        -11.4431   -0.7621   58.6957 C.3     1  ZINC001231746020   -0.0100
      6 N6        -11.6282   -0.8888   60.1572 N.4     1  ZINC001231746020   -0.3800
      7 H7        -11.7703    0.0292   60.5511 H       1  ZINC001231746020    0.4100
      8 C8        -12.8176   -1.7102   60.4190 C.3     1  ZINC001231746020    0.0700
      9 C9        -14.0449   -0.9892   59.9240 C.ar    1  ZINC001231746020   -0.3100
     10 C10       -14.4026    0.2252   60.4792 C.ar    1  ZINC001231746020   -0.0300
     11 C11       -15.5279    0.8891   60.0267 C.ar    1  ZINC001231746020   -0.1600
     12 Cl12      -15.9765    2.4140   60.7245 Cl      1  ZINC001231746020   -0.0800
     13 C13       -16.2987    0.3348   59.0144 C.ar    1  ZINC001231746020    0.3100
     14 O14       -17.4054    0.9855   58.5672 O.3     1  ZINC001231746020   -0.6300
     15 C15       -15.9374   -0.8847   58.4593 C.ar    1  ZINC001231746020   -0.2100
     16 Br16      -16.9845   -1.6440   57.0798 Br      1  ZINC001231746020   -0.0600
     17 C17       -14.8080   -1.5410   58.9114 C.ar    1  ZINC001231746020   -0.0200
     18 C18       -10.4865   -1.4994   60.7939 C.3     1  ZINC001231746020   -0.0200
     19 C19        -9.5902   -0.3739   61.3353 C.3     1  ZINC001231746020   -0.1800
     20 C20        -8.6911    0.1766   60.3286 C.3     1  ZINC001231746020    0.1000
     21 H21        -8.0673    0.9439   60.7870 H       1  ZINC001231746020    0.0700
     22 O22        -7.8551   -0.8673   59.8251 O.3     1  ZINC001231746020   -0.5600
     23 H23        -9.1190    2.1222   57.4934 H       1  ZINC001231746020    0.0600
     24 H24        -7.7340    1.0961   57.9378 H       1  ZINC001231746020    0.0700
     25 H25        -8.1682    2.4932   58.9518 H       1  ZINC001231746020    0.0600
     26 H26       -10.0564    0.0395   57.2582 H       1  ZINC001231746020    0.1000
     27 H27        -9.3568   -1.1603   58.3564 H       1  ZINC001231746020    0.1000
     28 H28       -12.1653   -0.0404   58.3139 H       1  ZINC001231746020    0.1200
     29 H29       -11.6426   -1.7289   58.2337 H       1  ZINC001231746020    0.1200
     30 H30       -12.7222   -2.6638   59.8996 H       1  ZINC001231746020    0.1200
     31 H31       -12.9079   -1.8876   61.4906 H       1  ZINC001231746020    0.1200
     32 H32       -13.8023    0.6559   61.2671 H       1  ZINC001231746020    0.1100
     33 H33       -14.5235   -2.4876   58.4761 H       1  ZINC001231746020    0.1100
     34 H34       -10.8181   -2.1344   61.6154 H       1  ZINC001231746020    0.1400
     35 H35        -9.9337   -2.0950   60.0674 H       1  ZINC001231746020    0.1300
     36 H36       -10.2245    0.4275   61.7143 H       1  ZINC001231746020    0.0900
     37 H37        -8.9933   -0.7665   62.1585 H       1  ZINC001231746020    0.1100
     38 H38        -7.3238   -1.3070   60.5028 H       1  ZINC001231746020    0.3900
@<TRIPOS>BOND
     1     1     2    1
     2     1    23    1
     3     1    24    1
     4     1    25    1
     5     2     3    1
     6     2    20    1
     7     2     4    1
     8     4     5    1
     9     4    26    1
    10     4    27    1
    11     5     6    1
    12     5    28    1
    13     5    29    1
    14     6     7    1
    15     6     8    1
    16     6    18    1
    17     8     9    1
    18     8    30    1
    19     8    31    1
    20     9    17   ar
    21     9    10   ar
    22    10    11   ar
    23    10    32    1
    24    11    12    1
    25    11    13   ar
    26    13    14    1
    27    13    15   ar
    28    15    16    1
    29    15    17   ar
    30    17    33    1
    31    18    19    1
    32    18    34    1
    33    18    35    1
    34    19    20    1
    35    19    36    1
    36    19    37    1
    37    20    21    1
    38    20    22    1
    39    22    38    1
@<TRIPOS>SUBSTRUCTURE
     1 ZINC001231746020        1 TEMP              0 ****  ****    0 ROOT


##########                                Name:    ZINC000742270208
##########                DOCK_Rotatable_Bonds:                   5
##########                         Heavy_Atoms:                  25
##########                    Molecular_Weight:             376.328
##########                DOCK_Rotatable_Bonds:                   5
##########                       Formal_Charge:                0.02
##########                     HBond_Acceptors:                   9
##########                        HBond_Donors:                   0
##########                         Heavy_Atoms:                  25
##########                          Grid_Score:          -24.758402
##########                     Grid_vdw_energy:          -23.702425
##########                      Grid_es_energy:           -1.055977
##########           Internal_energy_repulsive:            9.180481

@<TRIPOS>MOLECULE
ZINC000742270208
 37 38 1 0 0
SMALL
USER_CHARGES


@<TRIPOS>ATOM
      1 C1         -7.7805    4.7499   52.4437 C.3     1  ZINC000742270208   -0.1400
      2 C2         -7.7988    3.7254   51.3074 C.3     1  ZINC000742270208   -0.1400
      3 C3         -7.4202    4.4133   49.9943 C.3     1  ZINC000742270208   -0.1400
      4 C4         -6.8086    2.6288   51.6038 C.2     1  ZINC000742270208    0.4000
      5 O5         -7.1603    1.6437   52.2170 O.2     1  ZINC000742270208   -0.4300
      6 C6         -5.4145    2.7535   51.1488 C.ar    1  ZINC000742270208   -0.1000
      7 C7         -4.9917    2.0944   49.9901 C.ar    1  ZINC000742270208   -0.0900
      8 C8         -3.6839    2.2162   49.5704 C.ar    1  ZINC000742270208   -0.0200
      9 C9         -2.7905    2.9878   50.2928 C.ar    1  ZINC000742270208   -0.6800
     10 S10        -1.1214    3.1371   49.7481 S.o2    1  ZINC000742270208    2.6600
     11 O11        -1.1248    2.8406   48.3584 O.2     1  ZINC000742270208   -0.9300
     12 O12        -0.6335    4.3608   50.2807 O.2     1  ZINC000742270208   -0.9000
     13 O13        -0.3266    2.0278   50.4222 O.3     1  ZINC000742270208   -0.6400
     14 C14         0.4931    1.3439   49.5794 C.ar    1  ZINC000742270208    0.0500
     15 C15         0.0275    0.2135   48.9221 C.ar    1  ZINC000742270208    0.0900
     16 F16        -1.2407   -0.2086   49.1191 F       1  ZINC000742270208   -0.0900
     17 C17         0.8639   -0.4813   48.0638 C.ar    1  ZINC000742270208    0.1100
     18 F18         0.4112   -1.5816   47.4238 F       1  ZINC000742270208   -0.1000
     19 C19         2.1632   -0.0487   47.8609 C.ar    1  ZINC000742270208   -0.1100
     20 C20         2.6296    1.0784   48.5158 C.ar    1  ZINC000742270208    0.1200
     21 F21         3.8980    1.4987   48.3163 F       1  ZINC000742270208   -0.1000
     22 C22         1.7947    1.7790   49.3710 C.ar    1  ZINC000742270208    0.1200
     23 F23         2.2502    2.8790   50.0095 F       1  ZINC000742270208   -0.0900
     24 C24        -3.2012    3.6432   51.4405 C.ar    1  ZINC000742270208   -0.0300
     25 C25        -4.5073    3.5364   51.8699 C.ar    1  ZINC000742270208   -0.0800
     26 H26        -8.4967    5.5431   52.2293 H       1  ZINC000742270208    0.0700
     27 H27        -8.0502    4.2597   53.3791 H       1  ZINC000742270208    0.0600
     28 H28        -6.7814    5.1766   52.5321 H       1  ZINC000742270208    0.0600
     29 H29        -8.7979    3.2986   51.2190 H       1  ZINC000742270208    0.1000
     30 H30        -6.4211    4.8401   50.0827 H       1  ZINC000742270208    0.0700
     31 H31        -7.4331    3.6835   49.1848 H       1  ZINC000742270208    0.0600
     32 H32        -8.1364    5.2065   49.7799 H       1  ZINC000742270208    0.0700
     33 H33        -5.6876    1.4913   49.4257 H       1  ZINC000742270208    0.1500
     34 H34        -3.3558    1.7078   48.6758 H       1  ZINC000742270208    0.1500
     35 H35         2.8140   -0.5912   47.1911 H       1  ZINC000742270208    0.1900
     36 H36        -2.4982    4.2435   51.9989 H       1  ZINC000742270208    0.1500
     37 H37        -4.8264    4.0484   52.7657 H       1  ZINC000742270208    0.1500
@<TRIPOS>BOND
     1     1     2    1
     2     1    26    1
     3     1    27    1
     4     1    28    1
     5     2     3    1
     6     2     4    1
     7     2    29    1
     8     3    30    1
     9     3    31    1
    10     3    32    1
    11     4     5    2
    12     4     6    1
    13     6    25   ar
    14     6     7   ar
    15     7     8   ar
    16     7    33    1
    17     8     9   ar
    18     8    34    1
    19     9    10    1
    20     9    24   ar
    21    10    11    2
    22    10    12    2
    23    10    13    1
    24    13    14    1
    25    14    22   ar
    26    14    15   ar
    27    15    16    1
    28    15    17   ar
    29    17    18    1
    30    17    19   ar
    31    19    20   ar
    32    19    35    1
    33    20    21    1
    34    20    22   ar
    35    22    23    1
    36    24    25   ar
    37    24    36    1
    38    25    37    1
@<TRIPOS>SUBSTRUCTURE
     1 ZINC000742270208        1 TEMP              0 ****  ****    0 ROOT


##########                                Name:    ZINC001211202056
##########                DOCK_Rotatable_Bonds:                   4
##########                         Heavy_Atoms:                  23
##########                    Molecular_Weight:             386.181
##########                DOCK_Rotatable_Bonds:                   4
##########                       Formal_Charge:           0.0199999
##########                     HBond_Acceptors:                  11
##########                        HBond_Donors:                   3
##########                         Heavy_Atoms:                  23
##########                          Grid_Score:          -24.595148
##########                     Grid_vdw_energy:          -25.128817
##########                      Grid_es_energy:            0.533668
##########           Internal_energy_repulsive:            5.586703

@<TRIPOS>MOLECULE
ZINC001211202056
 31 32 1 0 0
SMALL
USER_CHARGES


@<TRIPOS>ATOM
      1 N1         -0.9044   -1.1883   45.7647 N.pl3   1  ZINC001211202056   -0.8500
      2 C2         -0.5663   -0.2491   46.7428 C.ar    1  ZINC001211202056    0.2900
      3 C3         -0.5231   -0.6216   48.0796 C.ar    1  ZINC001211202056   -0.2000
      4 C4         -0.1886    0.3092   49.0442 C.ar    1  ZINC001211202056    0.0400
      5 C5          0.1026    1.6107   48.6803 C.ar    1  ZINC001211202056   -0.7300
      6 S6          0.5286    2.7941   49.9143 S.o2    1  ZINC001211202056    2.6900
      7 O7          0.5976    2.0847   51.1437 O.2     1  ZINC001211202056   -0.9400
      8 O8          1.6132    3.5478   49.3900 O.2     1  ZINC001211202056   -0.9300
      9 N9         -0.7467    3.8417   50.0498 N.am    1  ZINC001211202056   -1.0500
     10 C10        -2.0085    3.3634   50.4141 C.ar    1  ZINC001211202056    0.1600
     11 C11        -2.8735    2.8489   49.4526 C.ar    1  ZINC001211202056   -0.1200
     12 C12        -4.1140    2.3863   49.8626 C.ar    1  ZINC001211202056   -0.0800
     13 C13        -4.4499    2.4498   51.2014 C.ar    1  ZINC001211202056    0.0400
     14 C14        -5.7971    1.9484   51.6537 C.3     1  ZINC001211202056    0.5300
     15 F15        -6.7056    2.0312   50.5931 F       1  ZINC001211202056   -0.1700
     16 F16        -5.6841    0.6168   52.0680 F       1  ZINC001211202056   -0.1600
     17 F17        -6.2523    2.7314   52.7199 F       1  ZINC001211202056   -0.1700
     18 N18        -3.6080    2.9427   52.0894 N.ar    1  ZINC001211202056   -0.4100
     19 C19        -2.4164    3.3892   51.7435 C.ar    1  ZINC001211202056    0.1600
     20 Cl20       -1.3513    4.0264   52.9573 Cl      1  ZINC001211202056    0.0000
     21 C21         0.0606    1.9861   47.3496 C.ar    1  ZINC001211202056    0.0400
     22 C22        -0.2671    1.0589   46.3791 C.ar    1  ZINC001211202056   -0.1400
     23 Cl23       -0.3196    1.5304   44.7091 Cl      1  ZINC001211202056   -0.0500
     24 H24        -0.9304   -0.9278   44.8306 H       1  ZINC001211202056    0.4100
     25 H25        -1.1091   -2.1015   46.0193 H       1  ZINC001211202056    0.4100
     26 H26        -0.7510   -1.6379   48.3651 H       1  ZINC001211202056    0.1400
     27 H27        -0.1549    0.0197   50.0842 H       1  ZINC001211202056    0.1500
     28 H28        -0.6180    4.7874   49.8764 H       1  ZINC001211202056    0.4400
     29 H29        -2.5852    2.8115   48.4124 H       1  ZINC001211202056    0.2000
     30 H30        -4.8104    1.9808   49.1437 H       1  ZINC001211202056    0.1700
     31 H31         0.2887    3.0037   47.0687 H       1  ZINC001211202056    0.1500
@<TRIPOS>BOND
     1     1     2    1
     2     1    24    1
     3     1    25    1
     4     2    22   ar
     5     2     3   ar
     6     3     4   ar
     7     3    26    1
     8     4     5   ar
     9     4    27    1
    10     5     6    1
    11     5    21   ar
    12     6     7    2
    13     6     8    2
    14     6     9   am
    15     9    10    1
    16     9    28    1
    17    10    19   ar
    18    10    11   ar
    19    11    12   ar
    20    11    29    1
    21    12    13   ar
    22    12    30    1
    23    13    14    1
    24    13    18   ar
    25    14    15    1
    26    14    16    1
    27    14    17    1
    28    18    19   ar
    29    19    20    1
    30    21    22   ar
    31    21    31    1
    32    22    23    1
@<TRIPOS>SUBSTRUCTURE
     1 ZINC001211202056        1 TEMP              0 ****  ****    0 ROOT


##########                                Name:    ZINC000566738344
##########                DOCK_Rotatable_Bonds:                   5
##########                         Heavy_Atoms:                  23
##########                    Molecular_Weight:             352.478
##########                DOCK_Rotatable_Bonds:                   5
##########                       Formal_Charge:           0.0100005
##########                     HBond_Acceptors:                   7
##########                        HBond_Donors:                   0
##########                         Heavy_Atoms:                  23
##########                          Grid_Score:          -24.514832
##########                     Grid_vdw_energy:          -22.027075
##########                      Grid_es_energy:           -2.487757
##########           Internal_energy_repulsive:           23.674780

@<TRIPOS>MOLECULE
ZINC000566738344
 43 44 1 0 0
SMALL
USER_CHARGES


@<TRIPOS>ATOM
      1 C1         -5.1906    4.4788   56.1929 C.3     1  ZINC000566738344   -0.1300
      2 C2         -6.4159    3.6343   56.4303 C.ar    1  ZINC000566738344   -0.0100
      3 C3         -6.8694    3.4239   57.7122 C.ar    1  ZINC000566738344   -0.1000
      4 C4         -8.0014    2.6431   57.9325 C.ar    1  ZINC000566738344   -0.0500
      5 S5         -8.5787    2.3755   59.5756 S.3     1  ZINC000566738344   -0.0300
      6 C6         -8.9479    0.5995   59.5944 C.3     1  ZINC000566738344   -0.1200
      7 H7         -8.3498    0.0960   58.8348 H       1  ZINC000566738344    0.1200
      8 C8         -8.6131    0.0235   60.9717 C.3     1  ZINC000566738344   -0.1300
      9 C9        -10.4113    0.3876   59.3034 C.2     1  ZINC000566738344    0.5200
     10 O10       -11.2129    1.2612   59.5583 O.2     1  ZINC000566738344   -0.5000
     11 N11       -10.8292   -0.7728   58.7601 N.am    1  ZINC000566738344   -0.6000
     12 C12        -9.8611   -1.8289   58.4540 C.3     1  ZINC000566738344    0.0600
     13 C13       -12.2515   -0.9782   58.4757 C.3     1  ZINC000566738344    0.1500
     14 H14       -12.6216   -0.1647   57.8517 H       1  ZINC000566738344    0.1300
     15 C15       -12.4447   -2.3191   57.7458 C.3     1  ZINC000566738344   -0.1300
     16 C16       -13.9645   -2.6250   57.7751 C.3     1  ZINC000566738344   -0.5900
     17 S17       -14.4299   -2.1695   59.4884 S.o2    1  ZINC000566738344    2.4000
     18 O18       -15.6513   -1.4436   59.4674 O.2     1  ZINC000566738344   -0.9300
     19 O19       -14.2967   -3.3063   60.3306 O.2     1  ZINC000566738344   -0.9300
     20 C20       -13.0438   -1.0193   59.7974 C.3     1  ZINC000566738344   -0.6200
     21 C21        -8.6783    2.0737   56.8571 C.ar    1  ZINC000566738344   -0.1400
     22 C22        -8.2297    2.2804   55.5725 C.ar    1  ZINC000566738344   -0.0400
     23 C23        -7.0966    3.0682   55.3476 C.ar    1  ZINC000566738344   -0.0400
     24 C24        -6.6272    3.2853   54.0122 C.1     1  ZINC000566738344    0.2500
     25 N25        -6.2548    3.4575   52.9529 N.1     1  ZINC000566738344   -0.4100
     26 H26        -5.4859    5.5207   56.0688 H       1  ZINC000566738344    0.0800
     27 H27        -4.5179    4.3910   57.0460 H       1  ZINC000566738344    0.0800
     28 H28        -4.6818    4.1356   55.2921 H       1  ZINC000566738344    0.0700
     29 H29        -6.3468    3.8643   58.5484 H       1  ZINC000566738344    0.1400
     30 H30        -9.2730    0.4632   61.7196 H       1  ZINC000566738344    0.0800
     31 H31        -8.7505   -1.0577   60.9566 H       1  ZINC000566738344    0.0800
     32 H32        -7.5773    0.2546   61.2202 H       1  ZINC000566738344    0.0900
     33 H33        -9.7523   -2.4839   59.3185 H       1  ZINC000566738344    0.0700
     34 H34       -10.2135   -2.4087   57.6010 H       1  ZINC000566738344    0.0800
     35 H35        -8.8971   -1.3799   58.2148 H       1  ZINC000566738344    0.0800
     36 H36       -12.1007   -2.2359   56.7148 H       1  ZINC000566738344    0.1100
     37 H37       -11.8953   -3.1070   58.2608 H       1  ZINC000566738344    0.0900
     38 H38       -14.4975   -2.0075   57.0522 H       1  ZINC000566738344    0.1400
     39 H39       -14.1496   -3.6836   57.5924 H       1  ZINC000566738344    0.1400
     40 H40       -12.4152   -1.3927   60.6058 H       1  ZINC000566738344    0.1400
     41 H41       -13.4228   -0.0263   60.0393 H       1  ZINC000566738344    0.1500
     42 H42        -9.5561    1.4690   57.0312 H       1  ZINC000566738344    0.1200
     43 H43        -8.7549    1.8383   54.7388 H       1  ZINC000566738344    0.1400
@<TRIPOS>BOND
     1     1     2    1
     2     1    26    1
     3     1    27    1
     4     1    28    1
     5     2    23   ar
     6     2     3   ar
     7     3     4   ar
     8     3    29    1
     9     4     5    1
    10     4    21   ar
    11     5     6    1
    12     6     7    1
    13     6     8    1
    14     6     9    1
    15     8    30    1
    16     8    31    1
    17     8    32    1
    18     9    10    2
    19     9    11   am
    20    11    12    1
    21    11    13    1
    22    12    33    1
    23    12    34    1
    24    12    35    1
    25    13    14    1
    26    13    20    1
    27    13    15    1
    28    15    16    1
    29    15    36    1
    30    15    37    1
    31    16    17    1
    32    16    38    1
    33    16    39    1
    34    17    18    2
    35    17    19    2
    36    17    20    1
    37    20    40    1
    38    20    41    1
    39    21    22   ar
    40    21    42    1
    41    22    23   ar
    42    22    43    1
    43    23    24    1
    44    24    25    3
@<TRIPOS>SUBSTRUCTURE
     1 ZINC000566738344        1 TEMP              0 ****  ****    0 ROOT


##########                                Name:    ZINC000482962466
##########                DOCK_Rotatable_Bonds:                   2
##########                         Heavy_Atoms:                  25
##########                    Molecular_Weight:             404.303
##########                DOCK_Rotatable_Bonds:                   2
##########                       Formal_Charge:           0.0200002
##########                     HBond_Acceptors:                   4
##########                        HBond_Donors:                   0
##########                         Heavy_Atoms:                  25
##########                          Grid_Score:          -24.461193
##########                     Grid_vdw_energy:          -24.682016
##########                      Grid_es_energy:            0.220823
##########           Internal_energy_repulsive:            6.341693

@<TRIPOS>MOLECULE
ZINC000482962466
 47 50 1 0 0
SMALL
USER_CHARGES


@<TRIPOS>ATOM
      1 C1        -16.1433   -2.1557   57.8359 C.3     1  ZINC000482962466   -0.1400
      2 C2        -14.8478   -1.5784   57.2620 C.3     1  ZINC000482962466    0.0700
      3 H3        -14.8009   -0.5099   57.4721 H       1  ZINC000482962466    0.0700
      4 C4        -14.8138   -1.8043   55.7462 C.3     1  ZINC000482962466    0.0800
      5 N5        -13.4862   -1.4124   55.2472 N.am    1  ZINC000482962466   -0.6100
      6 C6        -13.3582   -0.5752   54.1988 C.2     1  ZINC000482962466    0.5600
      7 O7        -14.3486   -0.1320   53.6505 O.2     1  ZINC000482962466   -0.5200
      8 C8        -12.0143   -0.1961   53.7157 C.ar    1  ZINC000482962466   -0.1100
      9 C9        -11.4365   -0.8948   52.6408 C.ar    1  ZINC000482962466   -0.0700
     10 C10       -10.2033   -0.5653   52.1790 C.ar    1  ZINC000482962466   -0.1000
     11 C11        -9.4859    0.4871   52.7765 C.ar    1  ZINC000482962466   -0.0400
     12 C12        -8.2085    0.8461   52.3159 C.ar    1  ZINC000482962466   -0.0700
     13 C13        -7.5380    1.8699   52.9143 C.ar    1  ZINC000482962466   -0.0800
     14 Br14       -5.8189    2.3487   52.2890 Br      1  ZINC000482962466   -0.0400
     15 C15        -8.1006    2.5706   53.9810 C.ar    1  ZINC000482962466   -0.1000
     16 C16        -9.3355    2.2509   54.4545 C.ar    1  ZINC000482962466   -0.0900
     17 C17       -10.0581    1.1997   53.8613 C.ar    1  ZINC000482962466   -0.0500
     18 C18       -11.3355    0.8485   54.3215 C.ar    1  ZINC000482962466   -0.0700
     19 C19       -12.3022   -1.9622   55.9268 C.3     1  ZINC000482962466    0.0700
     20 C20       -12.4593   -1.7313   57.4330 C.3     1  ZINC000482962466    0.0800
     21 C21       -11.3403   -2.4606   58.1807 C.3     1  ZINC000482962466   -0.1100
     22 C22       -11.4598   -2.1577   59.6777 C.3     1  ZINC000482962466   -0.1500
     23 C23       -11.4115   -0.6422   59.8888 C.3     1  ZINC000482962466    0.0600
     24 O24       -12.4613   -0.0239   59.1421 O.3     1  ZINC000482962466   -0.3700
     25 C25       -12.3745   -0.2329   57.7310 C.3     1  ZINC000482962466    0.0400
     26 O26       -13.7267   -2.2327   57.8615 O.3     1  ZINC000482962466   -0.3500
     27 H27       -16.1658   -1.9964   58.9139 H       1  ZINC000482962466    0.0700
     28 H28       -16.9976   -1.6578   57.3771 H       1  ZINC000482962466    0.0800
     29 H29       -16.1895   -3.2242   57.6255 H       1  ZINC000482962466    0.0700
     30 H30       -14.9917   -2.8574   55.5280 H       1  ZINC000482962466    0.0800
     31 H31       -15.5805   -1.1953   55.2671 H       1  ZINC000482962466    0.1000
     32 H32       -11.9807   -1.7042   52.1770 H       1  ZINC000482962466    0.1400
     33 H33        -9.7726   -1.1115   51.3528 H       1  ZINC000482962466    0.1400
     34 H34        -7.7596    0.3126   51.4911 H       1  ZINC000482962466    0.1400
     35 H35        -7.5480    3.3783   54.4378 H       1  ZINC000482962466    0.1400
     36 H36        -9.7587    2.8015   55.2815 H       1  ZINC000482962466    0.1400
     37 H37       -11.7845    1.3854   55.1441 H       1  ZINC000482962466    0.1400
     38 H38       -12.2261   -3.0307   55.7251 H       1  ZINC000482962466    0.0900
     39 H39       -11.4055   -1.4558   55.5693 H       1  ZINC000482962466    0.1000
     40 H40       -11.4323   -3.5344   58.0174 H       1  ZINC000482962466    0.0800
     41 H41       -10.3729   -2.1164   57.8150 H       1  ZINC000482962466    0.0800
     42 H42       -12.4054   -2.5479   60.0539 H       1  ZINC000482962466    0.0800
     43 H43       -10.6330   -2.6263   60.2113 H       1  ZINC000482962466    0.0800
     44 H44       -11.5385   -0.4186   60.9480 H       1  ZINC000482962466    0.1000
     45 H45       -10.4494   -0.2585   59.5493 H       1  ZINC000482962466    0.0500
     46 H46       -11.4258    0.1577   57.3632 H       1  ZINC000482962466    0.0600
     47 H47       -13.1969    0.2833   57.2358 H       1  ZINC000482962466    0.1000
@<TRIPOS>BOND
     1     1     2    1
     2     1    27    1
     3     1    28    1
     4     1    29    1
     5     2     3    1
     6     2    26    1
     7     2     4    1
     8     4     5    1
     9     4    30    1
    10     4    31    1
    11     5     6   am
    12     5    19    1
    13     6     7    2
    14     6     8    1
    15     8    18   ar
    16     8     9   ar
    17     9    10   ar
    18     9    32    1
    19    10    11   ar
    20    10    33    1
    21    11    17   ar
    22    11    12   ar
    23    12    13   ar
    24    12    34    1
    25    13    14    1
    26    13    15   ar
    27    15    16   ar
    28    15    35    1
    29    16    17   ar
    30    16    36    1
    31    17    18   ar
    32    18    37    1
    33    19    20    1
    34    19    38    1
    35    19    39    1
    36    20    25    1
    37    20    21    1
    38    20    26    1
    39    21    22    1
    40    21    40    1
    41    21    41    1
    42    22    23    1
    43    22    42    1
    44    22    43    1
    45    23    24    1
    46    23    44    1
    47    23    45    1
    48    24    25    1
    49    25    46    1
    50    25    47    1
@<TRIPOS>SUBSTRUCTURE
     1 ZINC000482962466        1 TEMP              0 ****  ****    0 ROOT


##########                                Name:    ZINC001010141213
##########                DOCK_Rotatable_Bonds:                   4
##########                         Heavy_Atoms:                  24
##########                    Molecular_Weight:             330.346
##########                DOCK_Rotatable_Bonds:                   4
##########                       Formal_Charge:          -0.0100003
##########                     HBond_Acceptors:                   9
##########                        HBond_Donors:                   1
##########                         Heavy_Atoms:                  24
##########                          Grid_Score:          -24.252771
##########                     Grid_vdw_energy:          -23.529245
##########                      Grid_es_energy:           -0.723525
##########           Internal_energy_repulsive:           28.422005

@<TRIPOS>MOLECULE
ZINC001010141213
 42 44 1 0 0
SMALL
USER_CHARGES


@<TRIPOS>ATOM
      1 C1         -5.8004    0.8816   52.3028 C.3     1  ZINC001010141213   -0.0800
      2 C2         -6.4401    2.1354   51.7645 C.2     1  ZINC001010141213   -0.1500
      3 C3         -5.8935    3.4063   51.7263 C.2     1  ZINC001010141213   -0.0400
      4 C4         -4.5623    3.8101   52.2063 C.2     1  ZINC001010141213    0.6000
      5 O5         -4.4571    4.6899   53.0394 O.2     1  ZINC001010141213   -0.5100
      6 N6         -3.4594    3.2048   51.7226 N.am    1  ZINC001010141213   -0.6100
      7 C7         -3.5709    2.1444   50.7112 C.3     1  ZINC001010141213    0.0900
      8 C8         -2.7139    2.5311   49.4994 C.3     1  ZINC001010141213    0.0700
      9 N9         -1.3783    2.9200   49.9735 N.am    1  ZINC001010141213   -0.6000
     10 C10        -0.2755    2.3155   49.4892 C.2     1  ZINC001010141213    0.5900
     11 O11         0.8238    2.6457   49.8891 O.2     1  ZINC001010141213   -0.5200
     12 C12        -0.4029    1.2504   48.4712 C.2     1  ZINC001010141213    0.0300
     13 N13        -1.0035    1.5034   47.3302 N.2     1  ZINC001010141213   -0.1800
     14 N14        -1.1394    0.6133   46.4149 N.am    1  ZINC001010141213   -0.4400
     15 C15        -0.6724   -0.6397   46.5692 C.2     1  ZINC001010141213    0.4800
     16 O16        -0.8170   -1.4627   45.6805 O.2     1  ZINC001010141213   -0.5100
     17 C17        -0.0135   -0.9951   47.7672 C.2     1  ZINC001010141213   -0.1800
     18 C18         0.1278   -0.0371   48.7267 C.2     1  ZINC001010141213   -0.0400
     19 C19        -1.2669    3.9804   50.9850 C.3     1  ZINC001010141213    0.1000
     20 C20        -2.1235    3.5977   52.1927 C.3     1  ZINC001010141213    0.1000
     21 N21        -6.8374    4.2109   51.1538 N.pl3   1  ZINC001010141213   -0.2700
     22 C22        -6.6874    5.6477   50.9112 C.3     1  ZINC001010141213    0.0900
     23 N23        -7.8764    3.5151   50.8602 N.2     1  ZINC001010141213   -0.2800
     24 C24        -7.7081    2.2606   51.1925 C.2     1  ZINC001010141213    0.0100
     25 H25        -5.2475    0.3846   51.5056 H       1  ZINC001010141213    0.0700
     26 H26        -5.1172    1.1407   53.1116 H       1  ZINC001010141213    0.0600
     27 H27        -6.5735    0.2126   52.6805 H       1  ZINC001010141213    0.0700
     28 H28        -3.2124    1.2029   51.1273 H       1  ZINC001010141213    0.0800
     29 H29        -4.6115    2.0393   50.4046 H       1  ZINC001010141213    0.1000
     30 H30        -2.6288    1.6792   48.8247 H       1  ZINC001010141213    0.1400
     31 H31        -3.1753    3.3694   48.9774 H       1  ZINC001010141213    0.0800
     32 H32        -1.5911    0.8502   45.5898 H       1  ZINC001010141213    0.4500
     33 H33         0.3705   -1.9935   47.9163 H       1  ZINC001010141213    0.1700
     34 H34         0.6239   -0.2568   49.6605 H       1  ZINC001010141213    0.1700
     35 H35        -0.2262    4.0857   51.2915 H       1  ZINC001010141213    0.1100
     36 H36        -1.6253    4.9220   50.5689 H       1  ZINC001010141213    0.0800
     37 H37        -2.2077    4.4504   52.8664 H       1  ZINC001010141213    0.1100
     38 H38        -1.6643    2.7590   52.7158 H       1  ZINC001010141213    0.0800
     39 H39        -6.3381    5.8097   49.8914 H       1  ZINC001010141213    0.0900
     40 H40        -7.6493    6.1418   51.0486 H       1  ZINC001010141213    0.1000
     41 H41        -5.9632    6.0611   51.6132 H       1  ZINC001010141213    0.0900
     42 H42        -8.4251    1.4647   51.0553 H       1  ZINC001010141213    0.1900
@<TRIPOS>BOND
     1     1     2    1
     2     1    25    1
     3     1    26    1
     4     1    27    1
     5     2    24    1
     6     2     3    2
     7     3     4    1
     8     3    21    1
     9     4     5    2
    10     4     6   am
    11     6    20    1
    12     6     7    1
    13     7     8    1
    14     7    28    1
    15     7    29    1
    16     8     9    1
    17     8    30    1
    18     8    31    1
    19     9    10   am
    20     9    19    1
    21    10    11    2
    22    10    12    1
    23    12    18    1
    24    12    13    2
    25    13    14    1
    26    14    15   am
    27    14    32    1
    28    15    16    2
    29    15    17    1
    30    17    18    2
    31    17    33    1
    32    18    34    1
    33    19    20    1
    34    19    35    1
    35    19    36    1
    36    20    37    1
    37    20    38    1
    38    21    22    1
    39    21    23    1
    40    22    39    1
    41    22    40    1
    42    22    41    1
    43    23    24    2
    44    24    42    1
@<TRIPOS>SUBSTRUCTURE
     1 ZINC001010141213        1 TEMP              0 ****  ****    0 ROOT


##########                                Name:    ZINC000274267583
##########                DOCK_Rotatable_Bonds:                   5
##########                         Heavy_Atoms:                  24
##########                    Molecular_Weight:             349.407
##########                DOCK_Rotatable_Bonds:                   5
##########                       Formal_Charge:           0.0300001
##########                     HBond_Acceptors:                   7
##########                        HBond_Donors:                   1
##########                         Heavy_Atoms:                  24
##########                          Grid_Score:          -24.229225
##########                     Grid_vdw_energy:          -23.877031
##########                      Grid_es_energy:           -0.352193
##########           Internal_energy_repulsive:           15.932096

@<TRIPOS>MOLECULE
ZINC000274267583
 43 45 1 0 0
SMALL
USER_CHARGES


@<TRIPOS>ATOM
      1 C1         -6.3951    1.1005   51.2670 C.3     1  ZINC000274267583    0.0200
      2 O2         -5.7320    1.8056   52.3182 O.3     1  ZINC000274267583   -0.3100
      3 C3         -6.4904    2.1867   53.3797 C.ar    1  ZINC000274267583    0.1900
      4 C4         -5.9218    2.9163   54.4137 C.ar    1  ZINC000274267583   -0.2300
      5 C5         -6.6951    3.3029   55.4912 C.ar    1  ZINC000274267583    0.0300
      6 C6         -8.0344    2.9629   55.5400 C.ar    1  ZINC000274267583   -0.7200
      7 S7         -9.0177    3.4569   56.9160 S.o2    1  ZINC000274267583    2.7000
      8 O8         -8.1123    3.8970   57.9189 O.2     1  ZINC000274267583   -0.9500
      9 O9        -10.0565    4.2742   56.3941 O.2     1  ZINC000274267583   -0.9500
     10 N10        -9.7483    2.0950   57.5107 N.am    1  ZINC000274267583   -1.1100
     11 C11        -8.9328    0.9788   57.9959 C.3     1  ZINC000274267583    0.2100
     12 H12        -7.9978    0.9429   57.4370 H       1  ZINC000274267583    0.1000
     13 C13        -8.6299    1.1783   59.4830 C.3     1  ZINC000274267583   -0.1800
     14 C14        -8.0383   -0.1256   60.0336 C.3     1  ZINC000274267583    0.0600
     15 O15        -9.0378   -1.1427   59.9534 O.3     1  ZINC000274267583   -0.3100
     16 C16        -9.6925   -1.2980   58.7722 C.ar    1  ZINC000274267583    0.1100
     17 C17       -10.3859   -2.4830   58.5501 C.ar    1  ZINC000274267583   -0.1100
     18 C18       -11.0678   -2.6791   57.3666 C.ar    1  ZINC000274267583   -0.1600
     19 C19       -11.0627   -1.6906   56.3940 C.ar    1  ZINC000274267583    0.0900
     20 O20       -11.7359   -1.8790   55.2276 O.3     1  ZINC000274267583   -0.3200
     21 C21       -11.8532   -0.7519   54.3569 C.3     1  ZINC000274267583    0.0300
     22 C22       -10.3705   -0.5103   56.6131 C.ar    1  ZINC000274267583   -0.1000
     23 C23        -9.6842   -0.3136   57.8003 C.ar    1  ZINC000274267583   -0.1400
     24 C24        -8.6035    2.2362   54.5105 C.ar    1  ZINC000274267583    0.0200
     25 C25        -7.8358    1.8517   53.4282 C.ar    1  ZINC000274267583   -0.1700
     26 H26        -6.8281    0.1817   51.6626 H       1  ZINC000274267583    0.0600
     27 H27        -7.1858    1.7258   50.8525 H       1  ZINC000274267583    0.0600
     28 H28        -5.6771    0.8562   50.4841 H       1  ZINC000274267583    0.1100
     29 H29        -4.8756    3.1815   54.3764 H       1  ZINC000274267583    0.1400
     30 H30        -6.2529    3.8708   56.2964 H       1  ZINC000274267583    0.1400
     31 H31       -10.7161    2.0361   57.5376 H       1  ZINC000274267583    0.4200
     32 H32        -7.9113    1.9885   59.6061 H       1  ZINC000274267583    0.1000
     33 H33        -9.5498    1.4183   60.0163 H       1  ZINC000274267583    0.0900
     34 H34        -7.1715   -0.4151   59.4395 H       1  ZINC000274267583    0.0700
     35 H35        -7.7411    0.0161   61.0727 H       1  ZINC000274267583    0.1200
     36 H36       -10.3903   -3.2533   59.3071 H       1  ZINC000274267583    0.1400
     37 H37       -11.6044   -3.6010   57.1979 H       1  ZINC000274267583    0.1400
     38 H38       -12.3791    0.0520   54.8720 H       1  ZINC000274267583    0.0600
     39 H39       -10.8590   -0.4099   54.0693 H       1  ZINC000274267583    0.0600
     40 H40       -12.4110   -1.0382   53.4652 H       1  ZINC000274267583    0.1000
     41 H41       -10.3663    0.2593   55.8555 H       1  ZINC000274267583    0.1300
     42 H42        -9.6499    1.9721   54.5506 H       1  ZINC000274267583    0.1500
     43 H43        -8.2808    1.2841   52.6243 H       1  ZINC000274267583    0.1400
@<TRIPOS>BOND
     1     1     2    1
     2     1    26    1
     3     1    27    1
     4     1    28    1
     5     2     3    1
     6     3    25   ar
     7     3     4   ar
     8     4     5   ar
     9     4    29    1
    10     5     6   ar
    11     5    30    1
    12     6     7    1
    13     6    24   ar
    14     7     8    2
    15     7     9    2
    16     7    10   am
    17    10    11    1
    18    10    31    1
    19    11    12    1
    20    11    23    1
    21    11    13    1
    22    13    14    1
    23    13    32    1
    24    13    33    1
    25    14    15    1
    26    14    34    1
    27    14    35    1
    28    15    16    1
    29    16    23   ar
    30    16    17   ar
    31    17    18   ar
    32    17    36    1
    33    18    19   ar
    34    18    37    1
    35    19    20    1
    36    19    22   ar
    37    20    21    1
    38    21    38    1
    39    21    39    1
    40    21    40    1
    41    22    23   ar
    42    22    41    1
    43    24    25   ar
    44    24    42    1
    45    25    43    1
@<TRIPOS>SUBSTRUCTURE
     1 ZINC000274267583        1 TEMP              0 ****  ****    0 ROOT


##########                                Name:    ZINC001625935330
##########                DOCK_Rotatable_Bonds:                   5
##########                         Heavy_Atoms:                  25
##########                    Molecular_Weight:             327.385
##########                DOCK_Rotatable_Bonds:                   5
##########                       Formal_Charge:           0.0199995
##########                     HBond_Acceptors:                   4
##########                        HBond_Donors:                   1
##########                         Heavy_Atoms:                  25
##########                          Grid_Score:          -24.222130
##########                     Grid_vdw_energy:          -23.733349
##########                      Grid_es_energy:           -0.488780
##########           Internal_energy_repulsive:           15.482296

@<TRIPOS>MOLECULE
ZINC001625935330
 42 44 1 0 0
SMALL
USER_CHARGES


@<TRIPOS>ATOM
      1 C1         -0.7630   -1.3245   48.9839 C.3     1  ZINC001625935330   -0.1600
      2 C2         -0.6240    0.0449   48.3157 C.3     1  ZINC001625935330    0.1800
      3 H3         -1.3360    0.1221   47.4940 H       1  ZINC001625935330    0.1000
      4 N4         -0.8958    1.0973   49.2979 N.am    1  ZINC001625935330   -0.7100
      5 C5         -2.1489    1.5693   49.4505 C.2     1  ZINC001625935330    0.5800
      6 O6         -3.0531    1.1230   48.7723 O.2     1  ZINC001625935330   -0.5300
      7 C7         -2.4242    2.6325   50.4451 C.ar    1  ZINC001625935330    0.0800
      8 C8         -3.7363    3.0213   50.6919 C.ar    1  ZINC001625935330   -0.1000
      9 C9         -3.9780    4.0253   51.6337 C.ar    1  ZINC001625935330    0.0000
     10 C10        -5.3609    4.4733   51.9310 C.ar    1  ZINC001625935330   -0.0600
     11 C11        -5.5836    5.4803   52.8681 C.ar    1  ZINC001625935330   -0.1000
     12 C12        -6.8720    5.8934   53.1403 C.ar    1  ZINC001625935330   -0.1200
     13 C13        -7.9413    5.3097   52.4849 C.ar    1  ZINC001625935330   -0.1100
     14 C14        -7.7261    4.3096   51.5537 C.ar    1  ZINC001625935330   -0.1200
     15 C15        -6.4415    3.8925   51.2698 C.ar    1  ZINC001625935330   -0.1000
     16 C16        -2.8835    4.5958   52.2879 C.ar    1  ZINC001625935330   -0.1400
     17 C17        -1.6088    4.1517   51.9843 C.ar    1  ZINC001625935330    0.1100
     18 N18        -1.4156    3.2008   51.0961 N.ar    1  ZINC001625935330   -0.4600
     19 C19         0.7768    0.2042   47.7834 C.ar    1  ZINC001625935330   -0.0900
     20 C20         1.8417    0.3013   48.6611 C.ar    1  ZINC001625935330   -0.0800
     21 C21         3.1313    0.4478   48.1808 C.ar    1  ZINC001625935330   -0.1100
     22 C22         3.3631    0.4974   46.8222 C.ar    1  ZINC001625935330   -0.0700
     23 C23         2.2928    0.3995   45.9305 C.ar    1  ZINC001625935330   -0.0200
     24 C24         2.5260    0.4501   44.5185 C.1     1  ZINC001625935330    0.2500
     25 N25         2.7111    0.4903   43.3983 N.1     1  ZINC001625935330   -0.4100
     26 C26         0.9949    0.2470   46.4218 C.ar    1  ZINC001625935330   -0.0600
     27 H27        -0.5608   -2.1076   48.2532 H       1  ZINC001625935330    0.0700
     28 H28        -0.0511   -1.4017   49.8056 H       1  ZINC001625935330    0.0600
     29 H29        -1.7762   -1.4397   49.3690 H       1  ZINC001625935330    0.0700
     30 H30        -0.1739    1.4544   49.8384 H       1  ZINC001625935330    0.4100
     31 H31        -4.5553    2.5553   50.1642 H       1  ZINC001625935330    0.1500
     32 H32        -4.7495    5.9364   53.3806 H       1  ZINC001625935330    0.1300
     33 H33        -7.0458    6.6735   53.8666 H       1  ZINC001625935330    0.1300
     34 H34        -8.9479    5.6357   52.7013 H       1  ZINC001625935330    0.1300
     35 H35        -8.5645    3.8572   51.0452 H       1  ZINC001625935330    0.1300
     36 H36        -6.2745    3.1118   50.5424 H       1  ZINC001625935330    0.1300
     37 H37        -3.0306    5.3745   53.0216 H       1  ZINC001625935330    0.1400
     38 H38        -0.7593    4.5899   52.4872 H       1  ZINC001625935330    0.1700
     39 H39         1.6658    0.2631   49.7260 H       1  ZINC001625935330    0.1300
     40 H40         3.9580    0.5239   48.8716 H       1  ZINC001625935330    0.1400
     41 H41         4.3700    0.6122   46.4487 H       1  ZINC001625935330    0.1400
     42 H42         0.1627    0.1706   45.7376 H       1  ZINC001625935330    0.1400
@<TRIPOS>BOND
     1     1     2    1
     2     1    27    1
     3     1    28    1
     4     1    29    1
     5     2     3    1
     6     2     4    1
     7     2    19    1
     8     4     5   am
     9     4    30    1
    10     5     6    2
    11     5     7    1
    12     7    18   ar
    13     7     8   ar
    14     8     9   ar
    15     8    31    1
    16     9    10    1
    17     9    16   ar
    18    10    15   ar
    19    10    11   ar
    20    11    12   ar
    21    11    32    1
    22    12    13   ar
    23    12    33    1
    24    13    14   ar
    25    13    34    1
    26    14    15   ar
    27    14    35    1
    28    15    36    1
    29    16    17   ar
    30    16    37    1
    31    17    18   ar
    32    17    38    1
    33    19    26   ar
    34    19    20   ar
    35    20    21   ar
    36    20    39    1
    37    21    22   ar
    38    21    40    1
    39    22    23   ar
    40    22    41    1
    41    23    24    1
    42    23    26   ar
    43    24    25    3
    44    26    42    1
@<TRIPOS>SUBSTRUCTURE
     1 ZINC001625935330        1 TEMP              0 ****  ****    0 ROOT


##########                                Name:    ZINC000477669194
##########                DOCK_Rotatable_Bonds:                   6
##########                         Heavy_Atoms:                  26
##########                    Molecular_Weight:             387.483
##########                DOCK_Rotatable_Bonds:                   6
##########                       Formal_Charge:         4.47035e-07
##########                     HBond_Acceptors:                   8
##########                        HBond_Donors:                   2
##########                         Heavy_Atoms:                  26
##########                          Grid_Score:          -24.194284
##########                     Grid_vdw_energy:          -24.278812
##########                      Grid_es_energy:            0.084529
##########           Internal_energy_repulsive:            9.283347

@<TRIPOS>MOLECULE
ZINC000477669194
 43 45 1 0 0
SMALL
USER_CHARGES


@<TRIPOS>ATOM
      1 C1        -10.2395   -1.0048   58.8194 C.3     1  ZINC000477669194   -0.0800
      2 C2        -10.1035    0.2287   57.9643 C.2     1  ZINC000477669194    0.0500
      3 N3         -8.9981    0.6514   57.4557 N.2     1  ZINC000477669194   -0.4900
      4 C4         -9.0526    1.7557   56.7251 C.2     1  ZINC000477669194    0.1200
      5 C5         -7.8599    2.3556   56.0792 C.ar    1  ZINC000477669194   -0.0600
      6 C6         -6.6896    2.5446   56.8096 C.ar    1  ZINC000477669194   -0.0800
      7 C7         -5.5818    3.1036   56.2039 C.ar    1  ZINC000477669194   -0.1400
      8 C8         -5.6290    3.4774   54.8727 C.ar    1  ZINC000477669194   -0.0900
      9 C9         -6.7852    3.2951   54.1374 C.ar    1  ZINC000477669194   -0.1300
     10 C10        -7.9036    2.7292   54.7309 C.ar    1  ZINC000477669194    0.1800
     11 N11        -9.0734    2.5437   53.9889 N.am    1  ZINC000477669194   -0.6500
     12 C12        -9.0544    1.7754   52.8818 C.2     1  ZINC000477669194    0.5600
     13 O13        -8.0195    1.2434   52.5285 O.2     1  ZINC000477669194   -0.5200
     14 C14       -10.2889    1.5796   52.0988 C.ar    1  ZINC000477669194   -0.1500
     15 C15       -10.8577    0.3067   51.9945 C.ar    1  ZINC000477669194   -0.0600
     16 C16       -12.0097    0.1273   51.2636 C.ar    1  ZINC000477669194   -0.1400
     17 C17       -12.6088    1.2116   50.6284 C.ar    1  ZINC000477669194    0.1700
     18 N18       -13.7729    1.0270   49.8905 N.am    1  ZINC000477669194   -1.0600
     19 S19       -13.6916    0.8520   48.2458 S.o2    1  ZINC000477669194    2.6100
     20 C20       -12.9287    2.3915   47.6640 C.3     1  ZINC000477669194   -0.6700
     21 O21       -12.8097   -0.2454   48.0533 O.2     1  ZINC000477669194   -0.9400
     22 O22       -15.0497    0.7816   47.8333 O.2     1  ZINC000477669194   -0.9500
     23 C23       -12.0451    2.4805   50.7307 C.ar    1  ZINC000477669194   -0.1600
     24 C24       -10.8959    2.6673   51.4641 C.ar    1  ZINC000477669194   -0.0300
     25 C25       -10.2881    2.2857   56.6206 C.2     1  ZINC000477669194   -0.2600
     26 S26       -11.3956    1.2587   57.5276 S.3     1  ZINC000477669194    0.1500
     27 H27       -11.2821   -1.1318   59.1108 H       1  ZINC000477669194    0.0800
     28 H28        -9.9115   -1.8769   58.2537 H       1  ZINC000477669194    0.0900
     29 H29        -9.6231   -0.8979   59.7120 H       1  ZINC000477669194    0.0900
     30 H30        -6.6485    2.2546   57.8491 H       1  ZINC000477669194    0.1300
     31 H31        -4.6748    3.2500   56.7717 H       1  ZINC000477669194    0.1300
     32 H32        -4.7586    3.9139   54.4058 H       1  ZINC000477669194    0.1300
     33 H33        -6.8162    3.5895   53.0988 H       1  ZINC000477669194    0.1500
     34 H34        -9.8988    2.9680   54.2707 H       1  ZINC000477669194    0.4200
     35 H35       -10.3933   -0.5350   52.4867 H       1  ZINC000477669194    0.1300
     36 H36       -12.4494   -0.8558   51.1823 H       1  ZINC000477669194    0.1400
     37 H37       -14.6325    1.0007   50.3392 H       1  ZINC000477669194    0.4300
     38 H38       -11.9073    2.4554   48.0394 H       1  ZINC000477669194    0.1300
     39 H39       -12.9164    2.4017   46.5741 H       1  ZINC000477669194    0.1400
     40 H40       -13.5038    3.2425   48.0288 H       1  ZINC000477669194    0.1300
     41 H41       -12.5125    3.3198   50.2371 H       1  ZINC000477669194    0.1700
     42 H42       -10.4593    3.6520   51.5433 H       1  ZINC000477669194    0.1500
     43 H43       -10.5526    3.1790   56.0744 H       1  ZINC000477669194    0.1800
@<TRIPOS>BOND
     1     1     2    1
     2     1    27    1
     3     1    28    1
     4     1    29    1
     5     2    26    1
     6     2     3    2
     7     3     4    1
     8     4     5    1
     9     4    25    2
    10     5    10   ar
    11     5     6   ar
    12     6     7   ar
    13     6    30    1
    14     7     8   ar
    15     7    31    1
    16     8     9   ar
    17     8    32    1
    18     9    10   ar
    19     9    33    1
    20    10    11    1
    21    11    12   am
    22    11    34    1
    23    12    13    2
    24    12    14    1
    25    14    24   ar
    26    14    15   ar
    27    15    16   ar
    28    15    35    1
    29    16    17   ar
    30    16    36    1
    31    17    18    1
    32    17    23   ar
    33    18    19   am
    34    18    37    1
    35    19    20    1
    36    19    21    2
    37    19    22    2
    38    20    38    1
    39    20    39    1
    40    20    40    1
    41    23    24   ar
    42    23    41    1
    43    24    42    1
    44    25    26    1
    45    25    43    1
@<TRIPOS>SUBSTRUCTURE
     1 ZINC000477669194        1 TEMP              0 ****  ****    0 ROOT


##########                                Name:    ZINC000931749147
##########                DOCK_Rotatable_Bonds:                   5
##########                         Heavy_Atoms:                  25
##########                    Molecular_Weight:             354.397
##########                DOCK_Rotatable_Bonds:                   5
##########                       Formal_Charge:        -4.76837e-07
##########                     HBond_Acceptors:                   7
##########                        HBond_Donors:                   1
##########                         Heavy_Atoms:                  25
##########                          Grid_Score:          -24.146591
##########                     Grid_vdw_energy:          -24.300898
##########                      Grid_es_energy:            0.154307
##########           Internal_energy_repulsive:          153.289810

@<TRIPOS>MOLECULE
ZINC000931749147
 49 51 1 0 0
SMALL
USER_CHARGES


@<TRIPOS>ATOM
      1 C1        -12.9809    1.7126   56.1125 C.3     1  ZINC000931749147   -0.1100
      2 C2        -12.2825    1.1211   54.9152 C.ar    1  ZINC000931749147   -0.1300
      3 C3        -11.8537   -0.1988   54.9430 C.ar    1  ZINC000931749147    0.1800
      4 N4        -12.0700   -0.9823   56.0835 N.am    1  ZINC000931749147   -0.6800
      5 C5        -13.1535   -1.7804   56.1573 C.2     1  ZINC000931749147    0.7100
      6 O6        -13.9432   -1.8204   55.2335 O.2     1  ZINC000931749147   -0.5500
      7 N7        -13.3616   -2.5344   57.2548 N.am    1  ZINC000931749147   -0.6200
      8 C8        -14.5372   -3.4134   57.3582 C.3     1  ZINC000931749147    0.0700
      9 C9        -15.2319   -3.1363   58.6964 C.3     1  ZINC000931749147    0.0500
     10 O10       -14.2734   -3.2311   59.7528 O.3     1  ZINC000931749147   -0.3700
     11 C11       -13.2175   -2.2705   59.6730 C.3     1  ZINC000931749147    0.0500
     12 C12       -12.4167   -2.5076   58.3826 C.3     1  ZINC000931749147    0.1300
     13 H13       -11.8878   -3.4583   58.4482 H       1  ZINC000931749147    0.0900
     14 C14       -11.4114   -1.3714   58.1839 C.3     1  ZINC000931749147   -0.1100
     15 C15       -10.6169   -1.1620   59.4746 C.3     1  ZINC000931749147   -0.1000
     16 C16        -9.1312   -0.9958   59.1404 C.3     1  ZINC000931749147   -0.1500
     17 C17        -8.3555   -0.7086   60.4285 C.3     1  ZINC000931749147    0.0600
     18 O18        -8.8883    0.4612   61.0532 O.3     1  ZINC000931749147   -0.3800
     19 C19       -10.2617    0.3467   61.4309 C.3     1  ZINC000931749147    0.0600
     20 C20       -11.1141    0.1019   60.1830 C.3     1  ZINC000931749147   -0.1500
     21 C21       -11.2105   -0.7416   53.8386 C.ar    1  ZINC000931749147   -0.1200
     22 C22       -10.9979    0.0316   52.7139 C.ar    1  ZINC000931749147   -0.1100
     23 C23       -11.4256    1.3478   52.6862 C.ar    1  ZINC000931749147    0.0500
     24 F24       -11.2167    2.1022   51.5851 F       1  ZINC000931749147   -0.1300
     25 C25       -12.0734    1.8912   53.7853 C.ar    1  ZINC000931749147    0.0900
     26 F26       -12.4901    3.1759   53.7568 F       1  ZINC000931749147   -0.1200
     27 H27       -14.0548    1.5486   56.0245 H       1  ZINC000931749147    0.0800
     28 H28       -12.6135    1.2343   57.0204 H       1  ZINC000931749147    0.0700
     29 H29       -12.7793    2.7828   56.1587 H       1  ZINC000931749147    0.0800
     30 H30       -11.4401   -0.9504   56.8205 H       1  ZINC000931749147    0.4100
     31 H31       -15.2242   -3.2055   56.5380 H       1  ZINC000931749147    0.0800
     32 H32       -14.2209   -4.4557   57.3177 H       1  ZINC000931749147    0.0900
     33 H33       -15.6612   -2.1345   58.6831 H       1  ZINC000931749147    0.0600
     34 H34       -16.0223   -3.8699   58.8550 H       1  ZINC000931749147    0.1100
     35 H35       -13.6395   -1.2656   59.6634 H       1  ZINC000931749147    0.0600
     36 H36       -12.5587   -2.3813   60.5344 H       1  ZINC000931749147    0.1100
     37 H37       -10.7284   -1.6280   57.3743 H       1  ZINC000931749147    0.1100
     38 H38       -11.9445   -0.4544   57.9327 H       1  ZINC000931749147    0.0700
     39 H39       -10.7507   -2.0234   60.1290 H       1  ZINC000931749147    0.0700
     40 H40        -8.7555   -1.9123   58.6857 H       1  ZINC000931749147    0.0700
     41 H41        -9.0047   -0.1651   58.4461 H       1  ZINC000931749147    0.0700
     42 H42        -8.4492   -1.5572   61.1063 H       1  ZINC000931749147    0.0500
     43 H43        -7.3039   -0.5470   60.1914 H       1  ZINC000931749147    0.0900
     44 H44       -10.3803   -0.4881   62.1217 H       1  ZINC000931749147    0.0500
     45 H45       -10.5834    1.2685   61.9158 H       1  ZINC000931749147    0.0900
     46 H46       -11.0276    0.9547   59.5097 H       1  ZINC000931749147    0.0700
     47 H47       -12.1563   -0.0296   60.4738 H       1  ZINC000931749147    0.0700
     48 H48       -10.8760   -1.7684   53.8591 H       1  ZINC000931749147    0.1800
     49 H49       -10.4973   -0.3911   51.8553 H       1  ZINC000931749147    0.1500
@<TRIPOS>BOND
     1     1     2    1
     2     1    27    1
     3     1    28    1
     4     1    29    1
     5     2    25   ar
     6     2     3   ar
     7     3     4    1
     8     3    21   ar
     9     4     5   am
    10     4    30    1
    11     5     6    2
    12     5     7   am
    13     7    12    1
    14     7     8    1
    15     8     9    1
    16     8    31    1
    17     8    32    1
    18     9    10    1
    19     9    33    1
    20     9    34    1
    21    10    11    1
    22    11    12    1
    23    11    35    1
    24    11    36    1
    25    12    13    1
    26    12    14    1
    27    14    15    1
    28    14    37    1
    29    14    38    1
    30    15    20    1
    31    15    16    1
    32    15    39    1
    33    16    17    1
    34    16    40    1
    35    16    41    1
    36    17    18    1
    37    17    42    1
    38    17    43    1
    39    18    19    1
    40    19    20    1
    41    19    44    1
    42    19    45    1
    43    20    46    1
    44    20    47    1
    45    21    22   ar
    46    21    48    1
    47    22    23   ar
    48    22    49    1
    49    23    24    1
    50    23    25   ar
    51    25    26    1
@<TRIPOS>SUBSTRUCTURE
     1 ZINC000931749147        1 TEMP              0 ****  ****    0 ROOT


##########                                Name:    ZINC000888733009
##########                DOCK_Rotatable_Bonds:                   6
##########                         Heavy_Atoms:                  25
##########                    Molecular_Weight:             360.434
##########                DOCK_Rotatable_Bonds:                   6
##########                       Formal_Charge:        -1.02073e-06
##########                     HBond_Acceptors:                   7
##########                        HBond_Donors:                   2
##########                         Heavy_Atoms:                  25
##########                          Grid_Score:          -24.109312
##########                     Grid_vdw_energy:          -24.394121
##########                      Grid_es_energy:            0.284810
##########           Internal_energy_repulsive:           25.743921

@<TRIPOS>MOLECULE
ZINC000888733009
 45 48 1 0 0
SMALL
USER_CHARGES


@<TRIPOS>ATOM
      1 C1          3.0807   -0.0565   47.0242 C.3     1  ZINC000888733009   -0.1500
      2 C2          1.6298    0.3540   46.7640 C.3     1  ZINC000888733009    0.0700
      3 H3          1.5426    0.8410   45.7928 H       1  ZINC000888733009    0.0700
      4 C4          1.1273    1.2950   47.8852 C.3     1  ZINC000888733009   -0.1300
      5 C5         -0.3336    0.8703   48.0860 C.3     1  ZINC000888733009   -0.1100
      6 C6         -0.7521    0.5882   49.5268 C.3     1  ZINC000888733009   -0.1300
      7 C7         -2.1055    1.2277   49.1657 C.3     1  ZINC000888733009    0.1200
      8 N8         -2.6442    2.0929   50.2182 N.am    1  ZINC000888733009   -0.7100
      9 C9         -3.9729    2.1379   50.4392 C.2     1  ZINC000888733009    0.5900
     10 O10        -4.7252    1.4585   49.7655 O.2     1  ZINC000888733009   -0.5600
     11 C11        -4.5120    3.0049   51.4912 C.2     1  ZINC000888733009   -0.2400
     12 C12        -3.7320    3.7871   52.3036 C.2     1  ZINC000888733009    0.0800
     13 N13        -2.3504    3.8596   52.2369 N.am    1  ZINC000888733009   -0.6100
     14 C14        -1.6818    4.7218   53.0283 C.2     1  ZINC000888733009    0.6000
     15 O15        -2.2919    5.4354   53.8027 O.2     1  ZINC000888733009   -0.4900
     16 C16        -0.2198    4.7998   52.9565 C.2     1  ZINC000888733009   -0.0900
     17 C17         0.5836    4.0651   52.1318 C.2     1  ZINC000888733009   -0.1000
     18 C18         1.9037    4.4617   52.3963 C.2     1  ZINC000888733009   -0.2300
     19 C19         1.8492    5.4090   53.3586 C.2     1  ZINC000888733009    0.0100
     20 O20         0.5677    5.6141   53.6894 O.3     1  ZINC000888733009   -0.1600
     21 S21        -4.6961    4.6584   53.4066 S.3     1  ZINC000888733009    0.3000
     22 C22        -6.1802    3.9674   52.7748 C.2     1  ZINC000888733009   -0.2800
     23 C23        -5.9239    3.1312   51.7792 C.2     1  ZINC000888733009   -0.0900
     24 C24        -1.3640    1.9961   48.0563 C.3     1  ZINC000888733009   -0.1400
     25 C25        -0.5616   -0.2723   47.0875 C.3     1  ZINC000888733009    0.0700
     26 O26         0.7617   -0.7995   46.8280 O.3     1  ZINC000888733009   -0.3700
     27 H27         3.4109   -0.7395   46.2415 H       1  ZINC000888733009    0.0600
     28 H28         3.7147    0.8300   47.0241 H       1  ZINC000888733009    0.0700
     29 H29         3.1499   -0.5526   47.9923 H       1  ZINC000888733009    0.0600
     30 H30         1.7003    1.1418   48.7998 H       1  ZINC000888733009    0.0800
     31 H31         1.1837    2.3357   47.5661 H       1  ZINC000888733009    0.0800
     32 H32        -0.8191   -0.4738   49.7631 H       1  ZINC000888733009    0.0800
     33 H33        -0.1843    1.1532   50.2659 H       1  ZINC000888733009    0.0900
     34 H34        -2.8382    0.5142   48.7888 H       1  ZINC000888733009    0.1200
     35 H35        -2.0445    2.6333   50.7560 H       1  ZINC000888733009    0.4000
     36 H36        -1.8641    3.2900   51.6206 H       1  ZINC000888733009    0.4400
     37 H37         0.2650    3.3226   51.4152 H       1  ZINC000888733009    0.1700
     38 H38         2.7956    4.0812   51.9205 H       1  ZINC000888733009    0.1600
     39 H39         2.6988    5.9198   53.7871 H       1  ZINC000888733009    0.2200
     40 H40        -7.1689    4.1960   53.1445 H       1  ZINC000888733009    0.1700
     41 H41        -6.6909    2.5924   51.2425 H       1  ZINC000888733009    0.1500
     42 H42        -0.9692    2.9593   48.3796 H       1  ZINC000888733009    0.0900
     43 H43        -1.9189    2.0568   47.1200 H       1  ZINC000888733009    0.0800
     44 H44        -1.1982   -1.0402   47.5270 H       1  ZINC000888733009    0.0900
     45 H45        -1.0042    0.1093   46.1675 H       1  ZINC000888733009    0.0700
@<TRIPOS>BOND
     1     1     2    1
     2     1    27    1
     3     1    28    1
     4     1    29    1
     5     2     3    1
     6     2    26    1
     7     2     4    1
     8     4     5    1
     9     4    30    1
    10     4    31    1
    11     5    24    1
    12     5     6    1
    13     5    25    1
    14     6     7    1
    15     6    32    1
    16     6    33    1
    17     7     8    1
    18     7    24    1
    19     7    34    1
    20     8     9   am
    21     8    35    1
    22     9    10    2
    23     9    11    1
    24    11    23    1
    25    11    12    2
    26    12    13    1
    27    12    21    1
    28    13    14   am
    29    13    36    1
    30    14    15    2
    31    14    16    1
    32    16    20    1
    33    16    17    2
    34    17    18    1
    35    17    37    1
    36    18    19    2
    37    18    38    1
    38    19    20    1
    39    19    39    1
    40    21    22    1
    41    22    23    2
    42    22    40    1
    43    23    41    1
    44    24    42    1
    45    24    43    1
    46    25    26    1
    47    25    44    1
    48    25    45    1
@<TRIPOS>SUBSTRUCTURE
     1 ZINC000888733009        1 TEMP              0 ****  ****    0 ROOT


##########                                Name:    ZINC000186316242
##########                DOCK_Rotatable_Bonds:                   7
##########                         Heavy_Atoms:                  28
##########                    Molecular_Weight:             392.525
##########                DOCK_Rotatable_Bonds:                   7
##########                       Formal_Charge:         -0.00999981
##########                     HBond_Acceptors:                   6
##########                        HBond_Donors:                   0
##########                         Heavy_Atoms:                  28
##########                          Grid_Score:          -23.911903
##########                     Grid_vdw_energy:          -24.047894
##########                      Grid_es_energy:            0.135989
##########           Internal_energy_repulsive:           23.352507

@<TRIPOS>MOLECULE
ZINC000186316242
 52 55 1 0 0
SMALL
USER_CHARGES


@<TRIPOS>ATOM
      1 C1          0.4797    4.9456   53.8601 C.3     1  ZINC000186316242   -0.1500
      2 C2         -0.1417    3.6541   53.3244 C.3     1  ZINC000186316242    0.1000
      3 N3         -0.1062    3.6660   51.8599 N.am    1  ZINC000186316242   -0.5900
      4 C4         -1.2461    3.8287   51.1595 C.2     1  ZINC000186316242    0.5900
      5 O5         -1.2167    3.8385   49.9436 O.2     1  ZINC000186316242   -0.5000
      6 C6         -2.5280    3.9948   51.8667 C.2     1  ZINC000186316242    0.0100
      7 C7         -2.8247    5.1079   52.5954 C.2     1  ZINC000186316242   -0.2100
      8 S8         -4.3903    4.9356   53.2619 S.3     1  ZINC000186316242    0.2000
      9 C9         -4.5569    3.3531   52.5105 C.2     1  ZINC000186316242    0.0700
     10 C10        -5.7425    2.4759   52.6228 C.ar    1  ZINC000186316242    0.1900
     11 C11        -6.8439    2.8935   53.3692 C.ar    1  ZINC000186316242   -0.1500
     12 C12        -7.9462    2.0615   53.4644 C.ar    1  ZINC000186316242   -0.0700
     13 C13        -7.9115    0.8386   52.8099 C.ar    1  ZINC000186316242   -0.1600
     14 C14        -6.7859    0.4872   52.0864 C.ar    1  ZINC000186316242    0.1100
     15 N15        -5.7520    1.2989   52.0073 N.ar    1  ZINC000186316242   -0.4500
     16 N16        -3.4819    3.0763   51.8383 N.2     1  ZINC000186316242   -0.3900
     17 C17         1.1683    3.5008   51.1566 C.3     1  ZINC000186316242    0.1400
     18 H18         1.9692    3.3007   51.8684 H       1  ZINC000186316242    0.1000
     19 C19         1.4912    4.7648   50.3271 C.3     1  ZINC000186316242   -0.1300
     20 C20         2.0995    4.1803   49.0275 C.3     1  ZINC000186316242    0.0400
     21 N21         1.2898    2.9574   48.7933 N.3     1  ZINC000186316242   -0.4900
     22 C22         1.9947    2.0209   47.9079 C.3     1  ZINC000186316242    0.0800
     23 C23         1.0248    1.4515   46.9047 C.ar    1  ZINC000186316242   -0.0700
     24 C24         0.4087    2.2843   45.9894 C.ar    1  ZINC000186316242   -0.1000
     25 C25        -0.4809    1.7619   45.0692 C.ar    1  ZINC000186316242   -0.1200
     26 C26        -0.7539    0.4069   45.0640 C.ar    1  ZINC000186316242   -0.1200
     27 C27        -0.1370   -0.4260   45.9787 C.ar    1  ZINC000186316242   -0.1200
     28 C28         0.7557    0.0956   46.8961 C.ar    1  ZINC000186316242   -0.1100
     29 C29         1.0679    2.3578   50.1295 C.3     1  ZINC000186316242    0.0400
     30 H30         0.4533    4.9367   54.9498 H       1  ZINC000186316242    0.0700
     31 H31         1.5134    5.0188   53.5223 H       1  ZINC000186316242    0.0500
     32 H32        -0.0851    5.8012   53.4900 H       1  ZINC000186316242    0.0400
     33 H33         0.4231    2.7985   53.6945 H       1  ZINC000186316242    0.1200
     34 H34        -1.1754    3.5808   53.6621 H       1  ZINC000186316242    0.0700
     35 H35        -2.1761    5.9608   52.7301 H       1  ZINC000186316242    0.1900
     36 H36        -6.8368    3.8522   53.8663 H       1  ZINC000186316242    0.1400
     37 H37        -8.8135    2.3576   54.0356 H       1  ZINC000186316242    0.1400
     38 H38        -8.7555    0.1669   52.8652 H       1  ZINC000186316242    0.1400
     39 H39        -6.7561   -0.4643   51.5764 H       1  ZINC000186316242    0.1600
     40 H40         0.5823    5.3258   50.1093 H       1  ZINC000186316242    0.0900
     41 H41         2.2174    5.3911   50.8453 H       1  ZINC000186316242    0.0700
     42 H42         1.9859    4.8812   48.2005 H       1  ZINC000186316242    0.0800
     43 H43         3.1487    3.9246   49.1751 H       1  ZINC000186316242    0.0400
     44 H44         2.7926    2.5469   47.3839 H       1  ZINC000186316242    0.0400
     45 H45         2.4212    1.2115   48.5005 H       1  ZINC000186316242    0.0800
     46 H46         0.6220    3.3429   45.9935 H       1  ZINC000186316242    0.1200
     47 H47        -0.9628    2.4127   44.3546 H       1  ZINC000186316242    0.1200
     48 H48        -1.4495   -0.0012   44.3455 H       1  ZINC000186316242    0.1200
     49 H49        -0.3505   -1.4847   45.9748 H       1  ZINC000186316242    0.1200
     50 H50         1.2378   -0.5551   47.6107 H       1  ZINC000186316242    0.1200
     51 H51         1.8317    1.6066   50.3309 H       1  ZINC000186316242    0.0500
     52 H52         0.0774    1.9052   50.1736 H       1  ZINC000186316242    0.0800
@<TRIPOS>BOND
     1     1     2    1
     2     1    30    1
     3     1    31    1
     4     1    32    1
     5     2     3    1
     6     2    33    1
     7     2    34    1
     8     3     4   am
     9     3    17    1
    10     4     5    2
    11     4     6    1
    12     6    16    1
    13     6     7    2
    14     7     8    1
    15     7    35    1
    16     8     9    1
    17     9    10    1
    18     9    16    2
    19    10    15   ar
    20    10    11   ar
    21    11    12   ar
    22    11    36    1
    23    12    13   ar
    24    12    37    1
    25    13    14   ar
    26    13    38    1
    27    14    15   ar
    28    14    39    1
    29    17    18    1
    30    17    29    1
    31    17    19    1
    32    19    20    1
    33    19    40    1
    34    19    41    1
    35    20    21    1
    36    20    42    1
    37    20    43    1
    38    21    22    1
    39    21    29    1
    40    22    23    1
    41    22    44    1
    42    22    45    1
    43    23    28   ar
    44    23    24   ar
    45    24    25   ar
    46    24    46    1
    47    25    26   ar
    48    25    47    1
    49    26    27   ar
    50    26    48    1
    51    27    28   ar
    52    27    49    1
    53    28    50    1
    54    29    51    1
    55    29    52    1
@<TRIPOS>SUBSTRUCTURE
     1 ZINC000186316242        1 TEMP              0 ****  ****    0 ROOT


##########                                Name:    ZINC000326056918
##########                DOCK_Rotatable_Bonds:                   6
##########                         Heavy_Atoms:                  24
##########                    Molecular_Weight:             408.326
##########                DOCK_Rotatable_Bonds:                   6
##########                       Formal_Charge:         -0.00999978
##########                     HBond_Acceptors:                   9
##########                        HBond_Donors:                   0
##########                         Heavy_Atoms:                  24
##########                          Grid_Score:          -23.896479
##########                     Grid_vdw_energy:          -21.314499
##########                      Grid_es_energy:           -2.581980
##########           Internal_energy_repulsive:           28.826864

@<TRIPOS>MOLECULE
ZINC000326056918
 39 40 1 0 0
SMALL
USER_CHARGES


@<TRIPOS>ATOM
      1 C1         -8.4560    0.2803   64.6325 C.3     1  ZINC000326056918    0.0400
      2 O2         -9.8819    0.3726   64.8902 O.3     1  ZINC000326056918   -0.3500
      3 C3        -10.5675    1.3137   64.2089 C.2     1  ZINC000326056918    0.5000
      4 O4        -11.6957    1.6119   64.5519 O.2     1  ZINC000326056918   -0.4300
      5 C5         -9.9537    1.9761   63.0568 C.2     1  ZINC000326056918   -0.1600
      6 C6        -10.1907    1.6687   61.7456 C.2     1  ZINC000326056918   -0.6200
      7 S7        -11.2986    0.3977   61.2335 S.o2    1  ZINC000326056918    2.6900
      8 O8        -11.9842   -0.0317   62.4018 O.2     1  ZINC000326056918   -0.9100
      9 O9        -11.9643    0.8874   60.0776 O.2     1  ZINC000326056918   -0.9400
     10 N10       -10.3768   -0.8843   60.7345 N.am    1  ZINC000326056918   -0.9900
     11 C11        -8.9152   -0.7978   60.7812 C.3     1  ZINC000326056918    0.0900
     12 C12       -11.0231   -2.1051   60.2463 C.3     1  ZINC000326056918    0.1500
     13 C13       -11.6149   -1.8498   58.8841 C.ar    1  ZINC000326056918   -0.0900
     14 C14       -10.8290   -1.3219   57.8774 C.ar    1  ZINC000326056918   -0.0800
     15 C15       -11.3712   -1.0870   56.6276 C.ar    1  ZINC000326056918   -0.1100
     16 C16       -12.7009   -1.3806   56.3839 C.ar    1  ZINC000326056918   -0.0200
     17 Cl17      -13.3814   -1.0860   54.8143 Cl      1  ZINC000326056918   -0.0600
     18 C18       -13.4880   -1.9096   57.3912 C.ar    1  ZINC000326056918   -0.1100
     19 C19       -12.9436   -2.1493   58.6398 C.ar    1  ZINC000326056918   -0.0300
     20 Cl20      -13.9305   -2.8135   59.9043 Cl      1  ZINC000326056918   -0.0100
     21 C21        -9.4796    2.4502   60.8671 C.2     1  ZINC000326056918   -0.0400
     22 C22        -9.5850    2.2876   59.3726 C.3     1  ZINC000326056918   -0.1100
     23 C23        -8.6868    3.3666   61.4357 C.2     1  ZINC000326056918   -0.2600
     24 S24        -8.7989    3.2998   63.1368 S.3     1  ZINC000326056918    0.3100
     25 H25        -8.0271   -0.5142   65.2434 H       1  ZINC000326056918    0.1100
     26 H26        -8.2907    0.0574   63.5785 H       1  ZINC000326056918    0.0700
     27 H27        -7.9794    1.2282   64.8826 H       1  ZINC000326056918    0.0700
     28 H28        -8.5668   -1.0683   61.7780 H       1  ZINC000326056918    0.0600
     29 H29        -8.4871   -1.4819   60.0486 H       1  ZINC000326056918    0.0700
     30 H30        -8.6040    0.2214   60.5518 H       1  ZINC000326056918    0.0900
     31 H31       -10.2852   -2.9044   60.1778 H       1  ZINC000326056918    0.1100
     32 H32       -11.8138   -2.3987   60.9367 H       1  ZINC000326056918    0.0900
     33 H33        -9.7908   -1.0925   58.0672 H       1  ZINC000326056918    0.1400
     34 H34       -10.7566   -0.6737   55.8414 H       1  ZINC000326056918    0.1400
     35 H35       -14.5262   -2.1390   57.2014 H       1  ZINC000326056918    0.1500
     36 H36       -10.4542    2.8350   59.0080 H       1  ZINC000326056918    0.0900
     37 H37        -8.6843    2.6797   58.9001 H       1  ZINC000326056918    0.0700
     38 H38        -9.6926    1.2307   59.1287 H       1  ZINC000326056918    0.0900
     39 H39        -8.0623    4.0587   60.8902 H       1  ZINC000326056918    0.1800
@<TRIPOS>BOND
     1     1     2    1
     2     1    25    1
     3     1    26    1
     4     1    27    1
     5     2     3    1
     6     3     4    2
     7     3     5    1
     8     5    24    1
     9     5     6    2
    10     6     7    1
    11     6    21    1
    12     7     8    2
    13     7     9    2
    14     7    10   am
    15    10    11    1
    16    10    12    1
    17    11    28    1
    18    11    29    1
    19    11    30    1
    20    12    13    1
    21    12    31    1
    22    12    32    1
    23    13    19   ar
    24    13    14   ar
    25    14    15   ar
    26    14    33    1
    27    15    16   ar
    28    15    34    1
    29    16    17    1
    30    16    18   ar
    31    18    19   ar
    32    18    35    1
    33    19    20    1
    34    21    22    1
    35    21    23    2
    36    22    36    1
    37    22    37    1
    38    22    38    1
    39    23    24    1
    40    23    39    1
@<TRIPOS>SUBSTRUCTURE
     1 ZINC000326056918        1 TEMP              0 ****  ****    0 ROOT


##########                                Name:    ZINC000279974681
##########                DOCK_Rotatable_Bonds:                   4
##########                         Heavy_Atoms:                  23
##########                    Molecular_Weight:              338.79
##########                DOCK_Rotatable_Bonds:                   4
##########                       Formal_Charge:           0.0100008
##########                     HBond_Acceptors:                   7
##########                        HBond_Donors:                   1
##########                         Heavy_Atoms:                  23
##########                          Grid_Score:          -23.879408
##########                     Grid_vdw_energy:          -23.305790
##########                      Grid_es_energy:           -0.573618
##########           Internal_energy_repulsive:            8.561125

@<TRIPOS>MOLECULE
ZINC000279974681
 42 45 1 0 0
SMALL
USER_CHARGES


@<TRIPOS>ATOM
      1 C1         -6.5311    3.5841   52.2409 C.3     1  ZINC000279974681   -0.1400
      2 C2         -5.1225    3.9029   51.7358 C.3     1  ZINC000279974681    0.0700
      3 H3         -5.1708    4.7164   51.0119 H       1  ZINC000279974681    0.0600
      4 C4         -4.5239    2.6590   51.0692 C.3     1  ZINC000279974681    0.1000
      5 N5         -3.1108    2.9317   50.7621 N.am    1  ZINC000279974681   -0.6300
      6 C6         -2.6118    2.7034   49.5311 C.2     1  ZINC000279974681    0.7100
      7 O7         -3.3321    2.2658   48.6546 O.2     1  ZINC000279974681   -0.5600
      8 N8         -1.3144    2.9603   49.2716 N.am    1  ZINC000279974681   -0.6700
      9 C9         -0.7954    2.7227   47.9910 C.ar    1  ZINC000279974681    0.2000
     10 C10        -0.4902    3.7889   47.1570 C.ar    1  ZINC000279974681   -0.1200
     11 C11         0.0230    3.5537   45.8922 C.ar    1  ZINC000279974681    0.0700
     12 C12         0.2318    2.2468   45.4594 C.ar    1  ZINC000279974681    0.0200
     13 C13        -0.0746    1.1843   46.2945 C.ar    1  ZINC000279974681   -0.0700
     14 C14        -0.5813    1.4198   47.5590 C.ar    1  ZINC000279974681   -0.0700
     15 Cl15       -0.9640    0.0861   48.6023 Cl      1  ZINC000279974681   -0.0500
     16 O16         0.7387    2.2831   44.1914 O.3     1  ZINC000279974681   -0.3000
     17 C17         0.4545    3.6069   43.7016 C.3     1  ZINC000279974681    0.2100
     18 O18         0.3989    4.4087   44.8962 O.3     1  ZINC000279974681   -0.3000
     19 C19        -2.2588    3.4615   51.8385 C.3     1  ZINC000279974681    0.0800
     20 C20        -2.9679    4.6663   52.4677 C.3     1  ZINC000279974681    0.1100
     21 H21        -3.0074    5.4828   51.7466 H       1  ZINC000279974681    0.0700
     22 C22        -2.1999    5.1192   53.7110 C.3     1  ZINC000279974681   -0.1600
     23 C23        -1.4860    6.4710   53.6470 C.3     1  ZINC000279974681   -0.1700
     24 C24        -2.7549    6.3150   54.4876 C.3     1  ZINC000279974681   -0.1600
     25 O25        -4.2972    4.2915   52.8365 O.3     1  ZINC000279974681   -0.3600
     26 H26        -6.9555    4.4684   52.7163 H       1  ZINC000279974681    0.0700
     27 H27        -7.1594    3.2861   51.4014 H       1  ZINC000279974681    0.0800
     28 H28        -6.4821    2.7706   52.9647 H       1  ZINC000279974681    0.0700
     29 H29        -4.5946    1.8089   51.7478 H       1  ZINC000279974681    0.0800
     30 H30        -5.0641    2.4402   50.1482 H       1  ZINC000279974681    0.1100
     31 H31        -0.7399    3.3094   49.9708 H       1  ZINC000279974681    0.4100
     32 H32        -0.6531    4.8020   47.4941 H       1  ZINC000279974681    0.1800
     33 H33         0.0871    0.1706   45.9586 H       1  ZINC000279974681    0.1500
     34 H34         1.2534    3.9521   43.0454 H       1  ZINC000279974681    0.1400
     35 H35        -0.5039    3.6257   43.1828 H       1  ZINC000279974681    0.0900
     36 H36        -2.1015    2.6922   52.5945 H       1  ZINC000279974681    0.0900
     37 H37        -1.2992    3.7741   51.4269 H       1  ZINC000279974681    0.0900
     38 H38        -1.7228    4.3244   54.2844 H       1  ZINC000279974681    0.1100
     39 H39        -0.5390    6.5657   54.1783 H       1  ZINC000279974681    0.1000
     40 H40        -1.5635    7.0376   52.7192 H       1  ZINC000279974681    0.1000
     41 H41        -3.6672    6.7790   54.1126 H       1  ZINC000279974681    0.1000
     42 H42        -2.6426    6.3070   55.5717 H       1  ZINC000279974681    0.1000
@<TRIPOS>BOND
     1     1     2    1
     2     1    26    1
     3     1    27    1
     4     1    28    1
     5     2     3    1
     6     2    25    1
     7     2     4    1
     8     4     5    1
     9     4    29    1
    10     4    30    1
    11     5     6   am
    12     5    19    1
    13     6     7    2
    14     6     8   am
    15     8     9    1
    16     8    31    1
    17     9    14   ar
    18     9    10   ar
    19    10    11   ar
    20    10    32    1
    21    11    18    1
    22    11    12   ar
    23    12    13   ar
    24    12    16    1
    25    13    14   ar
    26    13    33    1
    27    14    15    1
    28    16    17    1
    29    17    18    1
    30    17    34    1
    31    17    35    1
    32    19    20    1
    33    19    36    1
    34    19    37    1
    35    20    21    1
    36    20    22    1
    37    20    25    1
    38    22    24    1
    39    22    23    1
    40    22    38    1
    41    23    24    1
    42    23    39    1
    43    23    40    1
    44    24    41    1
    45    24    42    1
@<TRIPOS>SUBSTRUCTURE
     1 ZINC000279974681        1 TEMP              0 ****  ****    0 ROOT


##########                                Name:    ZINC000187810810
##########                DOCK_Rotatable_Bonds:                   7
##########                         Heavy_Atoms:                  27
##########                    Molecular_Weight:             386.414
##########                DOCK_Rotatable_Bonds:                   7
##########                       Formal_Charge:           0.0599998
##########                     HBond_Acceptors:                   8
##########                        HBond_Donors:                   1
##########                         Heavy_Atoms:                  27
##########                          Grid_Score:          -23.833710
##########                     Grid_vdw_energy:          -23.274420
##########                      Grid_es_energy:           -0.559291
##########           Internal_energy_repulsive:           41.505356

@<TRIPOS>MOLECULE
ZINC000187810810
 52 53 1 0 0
SMALL
USER_CHARGES


@<TRIPOS>ATOM
      1 C1        -12.3573    1.1295   51.2721 C.3     1  ZINC000187810810   -0.1800
      2 C2        -11.7572    0.2938   52.4046 C.3     1  ZINC000187810810    0.1400
      3 C3        -10.6641   -0.6172   51.8422 C.3     1  ZINC000187810810   -0.1800
      4 C4        -11.1538    1.2231   53.4595 C.3     1  ZINC000187810810   -0.1400
      5 O5        -12.7977   -0.5167   53.0117 O.3     1  ZINC000187810810   -0.3600
      6 C6        -13.6151    0.0950   53.8894 C.2     1  ZINC000187810810    0.6500
      7 O7        -14.3795    0.9589   53.5074 O.2     1  ZINC000187810810   -0.5600
      8 N8        -13.5853   -0.2506   55.1917 N.am    1  ZINC000187810810   -0.6000
      9 C9        -12.6609   -1.2876   55.6700 C.3     1  ZINC000187810810    0.1100
     10 C10       -13.4612   -2.3474   56.4337 C.3     1  ZINC000187810810   -0.1400
     11 C11       -14.2720   -1.6691   57.5405 C.3     1  ZINC000187810810    0.1800
     12 C12       -15.0460   -2.7286   58.3275 C.3     1  ZINC000187810810   -0.1600
     13 N13       -13.3648   -0.9564   58.4433 N.am    1  ZINC000187810810   -0.7100
     14 C14       -12.4063   -1.6324   59.1072 C.2     1  ZINC000187810810    0.5500
     15 O15       -12.2955   -2.8337   58.9580 O.2     1  ZINC000187810810   -0.5100
     16 C16       -11.4895   -0.9128   60.0170 C.ar    1  ZINC000187810810   -0.0900
     17 C17       -10.1435   -0.7620   59.6804 C.ar    1  ZINC000187810810   -0.0900
     18 C18        -9.2934   -0.0890   60.5337 C.ar    1  ZINC000187810810   -0.0900
     19 C19        -9.7725    0.4353   61.7209 C.ar    1  ZINC000187810810   -0.0900
     20 C20       -11.1059    0.2888   62.0608 C.ar    1  ZINC000187810810   -0.0800
     21 C21       -11.9677   -0.3764   61.2138 C.ar    1  ZINC000187810810   -0.1300
     22 C22       -13.4196   -0.5347   61.5854 C.3     1  ZINC000187810810    0.5200
     23 F23       -13.8098   -1.8633   61.3858 F       1  ZINC000187810810   -0.1800
     24 F24       -13.5966   -0.1938   62.9307 F       1  ZINC000187810810   -0.1600
     25 F25       -14.2003    0.3059   60.7847 F       1  ZINC000187810810   -0.1600
     26 C26       -15.2563   -0.6759   56.9184 C.3     1  ZINC000187810810   -0.1500
     27 C27       -14.4723    0.4067   56.1612 C.3     1  ZINC000187810810    0.1300
     28 H28       -12.7871    0.4674   50.5204 H       1  ZINC000187810810    0.0900
     29 H29       -13.1359    1.7785   51.6727 H       1  ZINC000187810810    0.0600
     30 H30       -11.5761    1.7379   50.8163 H       1  ZINC000187810810    0.0700
     31 H31        -9.8830   -0.0088   51.3864 H       1  ZINC000187810810    0.0700
     32 H32       -10.2366   -1.2125   52.6490 H       1  ZINC000187810810    0.0600
     33 H33       -11.0940   -1.2792   51.0905 H       1  ZINC000187810810    0.0900
     34 H34       -11.9325    1.8721   53.8603 H       1  ZINC000187810810    0.0700
     35 H35       -10.7263    0.6278   54.2663 H       1  ZINC000187810810    0.0700
     36 H36       -10.3726    1.8316   53.0038 H       1  ZINC000187810810    0.0800
     37 H37       -12.1596   -1.7505   54.8200 H       1  ZINC000187810810    0.1000
     38 H38       -11.9211   -0.8398   56.3337 H       1  ZINC000187810810    0.0700
     39 H39       -14.1374   -2.8571   55.7475 H       1  ZINC000187810810    0.0900
     40 H40       -12.7769   -3.0714   56.8758 H       1  ZINC000187810810    0.0900
     41 H41       -14.3450   -3.4354   58.7716 H       1  ZINC000187810810    0.0600
     42 H42       -15.6236   -2.2458   59.1158 H       1  ZINC000187810810    0.0800
     43 H43       -15.7207   -3.2594   57.6558 H       1  ZINC000187810810    0.0700
     44 H44       -13.4539    0.0020   58.5632 H       1  ZINC000187810810    0.4000
     45 H45        -9.7682   -1.1714   58.7541 H       1  ZINC000187810810    0.1400
     46 H46        -8.2516    0.0285   60.2744 H       1  ZINC000187810810    0.1400
     47 H47        -9.1029    0.9609   62.3854 H       1  ZINC000187810810    0.1400
     48 H48       -11.4735    0.7001   62.9893 H       1  ZINC000187810810    0.1500
     49 H49       -15.9156   -1.2014   56.2276 H       1  ZINC000187810810    0.0800
     50 H50       -15.8496   -0.2104   57.7055 H       1  ZINC000187810810    0.1000
     51 H51       -13.8820    0.9914   56.8668 H       1  ZINC000187810810    0.0700
     52 H52       -15.1677    1.0600   55.6340 H       1  ZINC000187810810    0.1000
@<TRIPOS>BOND
     1     1     2    1
     2     1    28    1
     3     1    29    1
     4     1    30    1
     5     2     3    1
     6     2     4    1
     7     2     5    1
     8     3    31    1
     9     3    32    1
    10     3    33    1
    11     4    34    1
    12     4    35    1
    13     4    36    1
    14     5     6    1
    15     6     7    2
    16     6     8   am
    17     8    27    1
    18     8     9    1
    19     9    10    1
    20     9    37    1
    21     9    38    1
    22    10    11    1
    23    10    39    1
    24    10    40    1
    25    11    12    1
    26    11    13    1
    27    11    26    1
    28    12    41    1
    29    12    42    1
    30    12    43    1
    31    13    14   am
    32    13    44    1
    33    14    15    2
    34    14    16    1
    35    16    21   ar
    36    16    17   ar
    37    17    18   ar
    38    17    45    1
    39    18    19   ar
    40    18    46    1
    41    19    20   ar
    42    19    47    1
    43    20    21   ar
    44    20    48    1
    45    21    22    1
    46    22    23    1
    47    22    24    1
    48    22    25    1
    49    26    27    1
    50    26    49    1
    51    26    50    1
    52    27    51    1
    53    27    52    1
@<TRIPOS>SUBSTRUCTURE
     1 ZINC000187810810        1 TEMP              0 ****  ****    0 ROOT


##########                                Name:    ZINC000431691749
##########                DOCK_Rotatable_Bonds:                   4
##########                         Heavy_Atoms:                  24
##########                    Molecular_Weight:             328.454
##########                DOCK_Rotatable_Bonds:                   4
##########                       Formal_Charge:         -0.00999957
##########                     HBond_Acceptors:                   4
##########                        HBond_Donors:                   0
##########                         Heavy_Atoms:                  24
##########                          Grid_Score:          -23.618877
##########                     Grid_vdw_energy:          -23.903086
##########                      Grid_es_energy:            0.284209
##########           Internal_energy_repulsive:          116.387222

@<TRIPOS>MOLECULE
ZINC000431691749
 52 54 1 0 0
SMALL
USER_CHARGES


@<TRIPOS>ATOM
      1 C1         -4.4598    2.7729   51.3319 C.3     1  ZINC000431691749   -0.1200
      2 C2         -3.2864    3.5908   51.8065 C.ar    1  ZINC000431691749   -0.0800
      3 C3         -3.4865    4.6473   52.6748 C.ar    1  ZINC000431691749   -0.1200
      4 C4         -2.4100    5.3977   53.1102 C.ar    1  ZINC000431691749   -0.1100
      5 C5         -1.1336    5.0910   52.6776 C.ar    1  ZINC000431691749   -0.1100
      6 C6         -0.9334    4.0335   51.8098 C.ar    1  ZINC000431691749   -0.0800
      7 C7          0.4583    3.6993   51.3377 C.3     1  ZINC000431691749    0.2000
      8 H8          1.0266    3.2656   52.1604 H       1  ZINC000431691749    0.1100
      9 N9          0.3821    2.7368   50.2360 N.am    1  ZINC000431691749   -0.5700
     10 C10         1.1373    1.6239   50.1493 C.2     1  ZINC000431691749    0.5200
     11 O11         1.9761    1.2449   50.9384 O.2     1  ZINC000431691749   -0.4400
     12 C12         0.7193    0.9442   48.8605 C.3     1  ZINC000431691749    0.0900
     13 H13         1.5617    0.8758   48.1723 H       1  ZINC000431691749    0.1300
     14 C14         0.1454   -0.4451   49.1463 C.3     1  ZINC000431691749   -0.1500
     15 N15        -0.3206    1.8368   48.3199 N.am    1  ZINC000431691749   -0.6000
     16 C16        -1.0717    1.6528   47.0757 C.3     1  ZINC000431691749    0.1500
     17 C17        -0.8706    2.7904   46.0606 C.3     1  ZINC000431691749   -0.1600
     18 C18         0.3257    1.9901   45.5193 C.3     1  ZINC000431691749   -0.1400
     19 C19        -0.3706    0.7316   46.0634 C.3     1  ZINC000431691749   -0.1500
     20 C20        -0.4498    2.8508   49.1943 C.2     1  ZINC000431691749    0.7000
     21 O21        -1.2299    3.7717   49.0505 O.2     1  ZINC000431691749   -0.5300
     22 C22         1.1528    4.9740   50.8543 C.3     1  ZINC000431691749   -0.0700
     23 C23         2.1314    4.6269   49.7307 C.3     1  ZINC000431691749   -0.1400
     24 C24         0.1050    5.9589   50.3319 C.3     1  ZINC000431691749   -0.1400
     25 C25         1.9165    5.6110   52.0171 C.3     1  ZINC000431691749   -0.1600
     26 C26        -2.0091    3.2808   51.3779 C.ar    1  ZINC000431691749   -0.1100
     27 H27        -4.6268    1.9440   52.0197 H       1  ZINC000431691749    0.0700
     28 H28        -5.3500    3.4010   51.2968 H       1  ZINC000431691749    0.0700
     29 H29        -4.2513    2.3822   50.3359 H       1  ZINC000431691749    0.0700
     30 H30        -4.4839    4.8871   53.0129 H       1  ZINC000431691749    0.1200
     31 H31        -2.5665    6.2237   53.7882 H       1  ZINC000431691749    0.1200
     32 H32        -0.2928    5.6775   53.0172 H       1  ZINC000431691749    0.1100
     33 H33        -0.7099   -0.3542   49.8158 H       1  ZINC000431691749    0.0700
     34 H34        -0.1725   -0.9061   48.2111 H       1  ZINC000431691749    0.0800
     35 H35         0.9099   -1.0645   49.6152 H       1  ZINC000431691749    0.0800
     36 H36        -2.1177    1.3979   47.2464 H       1  ZINC000431691749    0.1000
     37 H37        -1.6889    2.8887   45.3473 H       1  ZINC000431691749    0.0900
     38 H38        -0.5902    3.7391   46.5182 H       1  ZINC000431691749    0.0700
     39 H39         0.4076    2.0086   44.4326 H       1  ZINC000431691749    0.0700
     40 H40         1.2666    2.2193   46.0196 H       1  ZINC000431691749    0.0800
     41 H41         0.3134    0.0182   46.5230 H       1  ZINC000431691749    0.1000
     42 H42        -1.0522    0.2671   45.3507 H       1  ZINC000431691749    0.0900
     43 H43         1.5873    4.1731   48.9023 H       1  ZINC000431691749    0.0600
     44 H44         2.6261    5.5350   49.3863 H       1  ZINC000431691749    0.0600
     45 H45         2.8779    3.9252   50.1028 H       1  ZINC000431691749    0.0600
     46 H46        -0.5923    6.2062   51.1325 H       1  ZINC000431691749    0.0500
     47 H47         0.5997    6.8670   49.9875 H       1  ZINC000431691749    0.0600
     48 H48        -0.4391    5.5051   49.5036 H       1  ZINC000431691749    0.0500
     49 H49         2.1630    4.8454   52.7527 H       1  ZINC000431691749    0.0700
     50 H50         2.8343    6.0649   51.6436 H       1  ZINC000431691749    0.0400
     51 H51         1.2961    6.3764   52.4833 H       1  ZINC000431691749    0.1000
     52 H52        -1.8526    2.4546   50.7000 H       1  ZINC000431691749    0.1300
@<TRIPOS>BOND
     1     1     2    1
     2     1    27    1
     3     1    28    1
     4     1    29    1
     5     2    26   ar
     6     2     3   ar
     7     3     4   ar
     8     3    30    1
     9     4     5   ar
    10     4    31    1
    11     5     6   ar
    12     5    32    1
    13     6     7    1
    14     6    26   ar
    15     7     8    1
    16     7     9    1
    17     7    22    1
    18     9    20   am
    19     9    10   am
    20    10    11    2
    21    10    12    1
    22    12    13    1
    23    12    14    1
    24    12    15    1
    25    14    33    1
    26    14    34    1
    27    14    35    1
    28    15    16    1
    29    15    20   am
    30    16    19    1
    31    16    17    1
    32    16    36    1
    33    17    18    1
    34    17    37    1
    35    17    38    1
    36    18    19    1
    37    18    39    1
    38    18    40    1
    39    19    41    1
    40    19    42    1
    41    20    21    2
    42    22    23    1
    43    22    24    1
    44    22    25    1
    45    23    43    1
    46    23    44    1
    47    23    45    1
    48    24    46    1
    49    24    47    1
    50    24    48    1
    51    25    49    1
    52    25    50    1
    53    25    51    1
    54    26    52    1
@<TRIPOS>SUBSTRUCTURE
     1 ZINC000431691749        1 TEMP              0 ****  ****    0 ROOT


##########                                Name:    ZINC000534890536
##########                DOCK_Rotatable_Bonds:                   6
##########                         Heavy_Atoms:                  30
##########                    Molecular_Weight:             411.476
##########                DOCK_Rotatable_Bonds:                   6
##########                       Formal_Charge:          0.00999957
##########                     HBond_Acceptors:                   7
##########                        HBond_Donors:                   1
##########                         Heavy_Atoms:                  30
##########                          Grid_Score:          -23.504671
##########                     Grid_vdw_energy:          -21.961700
##########                      Grid_es_energy:           -1.542971
##########           Internal_energy_repulsive:           30.020159

@<TRIPOS>MOLECULE
ZINC000534890536
 56 59 1 0 0
SMALL
USER_CHARGES


@<TRIPOS>ATOM
      1 C1        -12.2687    2.3916   50.9604 C.3     1  ZINC000534890536    0.0300
      2 O2        -13.2445    1.7301   51.7680 O.3     1  ZINC000534890536   -0.3200
      3 C3        -12.7816    0.9505   52.7804 C.ar    1  ZINC000534890536    0.1300
      4 C4        -11.4165    0.8288   52.9952 C.ar    1  ZINC000534890536   -0.2100
      5 C5        -10.9486    0.0360   54.0252 C.ar    1  ZINC000534890536   -0.0700
      6 C6        -11.8395   -0.6362   54.8414 C.ar    1  ZINC000534890536   -0.1100
      7 C7        -11.3263   -1.5008   55.9639 C.3     1  ZINC000534890536   -0.0600
      8 H8        -10.3224   -1.8652   55.7460 H       1  ZINC000534890536    0.0900
      9 C9        -12.2961   -2.6783   56.2471 C.3     1  ZINC000534890536   -0.1200
     10 C10       -12.0278   -2.9974   57.7329 C.3     1  ZINC000534890536    0.1000
     11 N11       -11.4433   -1.7925   58.3395 N.am    1  ZINC000534890536   -0.6400
     12 C12       -11.0477   -1.6718   59.6223 C.2     1  ZINC000534890536    0.7300
     13 O13       -11.1617   -2.6120   60.3847 O.2     1  ZINC000534890536   -0.5700
     14 N14       -10.5255   -0.5089   60.0599 N.am    1  ZINC000534890536   -0.7300
     15 C15       -10.0971   -0.3772   61.4547 C.3     1  ZINC000534890536    0.1600
     16 H16       -10.2008   -1.3386   61.9577 H       1  ZINC000534890536    0.1200
     17 C17        -8.6318    0.0634   61.4970 C.3     1  ZINC000534890536   -0.1300
     18 C18        -8.2863    0.4595   62.9376 C.3     1  ZINC000534890536   -0.1300
     19 C19        -9.0644    1.7257   63.2973 C.3     1  ZINC000534890536    0.1100
     20 N20       -10.4785    1.5616   62.9844 N.am    1  ZINC000534890536   -0.5600
     21 C21       -11.3919    2.4252   63.6020 C.ar    1  ZINC000534890536    0.1000
     22 C22       -11.8605    2.1450   64.8778 C.ar    1  ZINC000534890536   -0.0800
     23 C23       -12.7613    2.9990   65.4850 C.ar    1  ZINC000534890536   -0.1200
     24 C24       -13.1971    4.1319   64.8234 C.ar    1  ZINC000534890536   -0.0800
     25 C25       -12.7331    4.4155   63.5516 C.ar    1  ZINC000534890536   -0.1500
     26 C26       -11.8273    3.5685   62.9403 C.ar    1  ZINC000534890536    0.1100
     27 F27       -11.3736    3.8455   61.6983 F       1  ZINC000534890536   -0.1300
     28 C28       -10.9557    0.6427   62.1461 C.2     1  ZINC000534890536    0.5000
     29 O29       -12.1493    0.6266   61.9307 O.2     1  ZINC000534890536   -0.5100
     30 C30       -11.3596   -0.7382   57.3119 C.3     1  ZINC000534890536    0.1300
     31 C31       -13.2006   -0.5162   54.6296 C.ar    1  ZINC000534890536   -0.0700
     32 C32       -13.6737    0.2794   53.6042 C.ar    1  ZINC000534890536   -0.1500
     33 H33       -11.6658    3.0504   51.5854 H       1  ZINC000534890536    0.0600
     34 H34       -11.6248    1.6497   50.4878 H       1  ZINC000534890536    0.0600
     35 H35       -12.7709    2.9791   50.1918 H       1  ZINC000534890536    0.1000
     36 H36       -10.7201    1.3531   52.3577 H       1  ZINC000534890536    0.1300
     37 H37        -9.8859   -0.0591   54.1930 H       1  ZINC000534890536    0.1300
     38 H38       -13.3310   -2.3695   56.0998 H       1  ZINC000534890536    0.0800
     39 H39       -12.0552   -3.5359   55.6189 H       1  ZINC000534890536    0.0900
     40 H40       -12.9633   -3.2478   58.2331 H       1  ZINC000534890536    0.0700
     41 H41       -11.3281   -3.8294   57.8130 H       1  ZINC000534890536    0.0700
     42 H42       -10.4333    0.2409   59.4514 H       1  ZINC000534890536    0.4000
     43 H43        -7.9918   -0.7596   61.1791 H       1  ZINC000534890536    0.0900
     44 H44        -8.4863    0.9183   60.8365 H       1  ZINC000534890536    0.0800
     45 H45        -8.5660   -0.3468   63.6156 H       1  ZINC000534890536    0.0800
     46 H46        -7.2164    0.6527   63.0171 H       1  ZINC000534890536    0.1000
     47 H47        -8.9522    1.9272   64.3627 H       1  ZINC000534890536    0.0800
     48 H48        -8.6653    2.5671   62.7308 H       1  ZINC000534890536    0.0700
     49 H49       -11.5215    1.2601   65.3958 H       1  ZINC000534890536    0.1300
     50 H50       -13.1258    2.7809   66.4779 H       1  ZINC000534890536    0.1300
     51 H51       -13.9017    4.7969   65.3005 H       1  ZINC000534890536    0.1400
     52 H52       -13.0755    5.3014   63.0374 H       1  ZINC000534890536    0.1400
     53 H53       -10.4485   -0.1540   57.4411 H       1  ZINC000534890536    0.0800
     54 H54       -12.2358   -0.0916   57.3596 H       1  ZINC000534890536    0.0700
     55 H55       -13.8945   -1.0420   55.2686 H       1  ZINC000534890536    0.1300
     56 H56       -14.7369    0.3729   53.4391 H       1  ZINC000534890536    0.1300
@<TRIPOS>BOND
     1     1     2    1
     2     1    33    1
     3     1    34    1
     4     1    35    1
     5     2     3    1
     6     3    32   ar
     7     3     4   ar
     8     4     5   ar
     9     4    36    1
    10     5     6   ar
    11     5    37    1
    12     6     7    1
    13     6    31   ar
    14     7     8    1
    15     7    30    1
    16     7     9    1
    17     9    10    1
    18     9    38    1
    19     9    39    1
    20    10    11    1
    21    10    40    1
    22    10    41    1
    23    11    12   am
    24    11    30    1
    25    12    13    2
    26    12    14   am
    27    14    15    1
    28    14    42    1
    29    15    16    1
    30    15    28    1
    31    15    17    1
    32    17    18    1
    33    17    43    1
    34    17    44    1
    35    18    19    1
    36    18    45    1
    37    18    46    1
    38    19    20    1
    39    19    47    1
    40    19    48    1
    41    20    21    1
    42    20    28   am
    43    21    26   ar
    44    21    22   ar
    45    22    23   ar
    46    22    49    1
    47    23    24   ar
    48    23    50    1
    49    24    25   ar
    50    24    51    1
    51    25    26   ar
    52    25    52    1
    53    26    27    1
    54    28    29    2
    55    30    53    1
    56    30    54    1
    57    31    32   ar
    58    31    55    1
    59    32    56    1
@<TRIPOS>SUBSTRUCTURE
     1 ZINC000534890536        1 TEMP              0 ****  ****    0 ROOT


##########                                Name:    ZINC000541315701
##########                DOCK_Rotatable_Bonds:                   4
##########                         Heavy_Atoms:                  25
##########                    Molecular_Weight:             422.709
##########                DOCK_Rotatable_Bonds:                   4
##########                       Formal_Charge:           0.0300003
##########                     HBond_Acceptors:                   6
##########                        HBond_Donors:                   0
##########                         Heavy_Atoms:                  25
##########                          Grid_Score:          -23.492546
##########                     Grid_vdw_energy:          -21.987862
##########                      Grid_es_energy:           -1.504683
##########           Internal_energy_repulsive:           32.665417

@<TRIPOS>MOLECULE
ZINC000541315701
 42 44 1 0 0
SMALL
USER_CHARGES


@<TRIPOS>ATOM
      1 C1         -1.3492    3.2925   52.0320 C.3     1  ZINC000541315701    0.0800
      2 N2         -1.9157    2.9825   50.7170 N.am    1  ZINC000541315701   -0.5700
      3 C3         -3.2439    3.0871   50.5137 C.2     1  ZINC000541315701    0.5400
      4 O4         -3.7128    2.8305   49.4251 O.2     1  ZINC000541315701   -0.5000
      5 C5         -4.1464    3.5232   51.6391 C.3     1  ZINC000541315701   -0.1100
      6 H6         -3.8957    3.0006   52.5622 H       1  ZINC000541315701    0.1300
      7 C7         -4.0841    5.0556   51.8362 C.3     1  ZINC000541315701   -0.1500
      8 C8         -5.2276    5.5841   50.9985 C.2     1  ZINC000541315701    0.5200
      9 O9         -5.3600    6.7394   50.6538 O.2     1  ZINC000541315701   -0.5200
     10 N10        -6.0752    4.5871   50.6916 N.am    1  ZINC000541315701   -0.6100
     11 C11        -7.2861    4.7509   49.8834 C.3     1  ZINC000541315701    0.0900
     12 C12        -5.6316    3.3123   51.2702 C.3     1  ZINC000541315701    0.1900
     13 H13        -5.7285    2.5113   50.5372 H       1  ZINC000541315701    0.1100
     14 C14        -6.4370    2.9905   52.5025 C.ar    1  ZINC000541315701   -0.0900
     15 C15        -7.6176    2.2806   52.3904 C.ar    1  ZINC000541315701   -0.1000
     16 C16        -8.3570    1.9846   53.5207 C.ar    1  ZINC000541315701   -0.1000
     17 C17        -7.9162    2.3989   54.7631 C.ar    1  ZINC000541315701   -0.1000
     18 C18        -6.7343    3.1096   54.8760 C.ar    1  ZINC000541315701   -0.0300
     19 Cl19       -6.1794    3.6298   56.4365 Cl      1  ZINC000541315701   -0.0600
     20 C20        -5.9921    3.4005   53.7454 C.ar    1  ZINC000541315701   -0.0900
     21 C21        -1.0807    2.5790   49.6757 C.ar    1  ZINC000541315701    0.3800
     22 N22        -1.2269    1.3747   49.1471 N.ar    1  ZINC000541315701   -0.4700
     23 C23        -0.4585    0.9537   48.1606 C.ar    1  ZINC000541315701    0.1300
     24 C24         0.5333    1.7614   47.6410 C.ar    1  ZINC000541315701   -0.1600
     25 C25         0.7202    3.0325   48.1672 C.ar    1  ZINC000541315701   -0.0400
     26 C26        -0.1050    3.4481   49.1981 C.ar    1  ZINC000541315701   -0.1300
     27 Br27        0.1001    5.1685   49.9559 Br      1  ZINC000541315701   -0.0200
     28 H28        -2.0559    3.0024   52.8095 H       1  ZINC000541315701    0.0900
     29 H29        -0.4171    2.7432   52.1648 H       1  ZINC000541315701    0.0800
     30 H30        -1.1532    4.3626   52.1000 H       1  ZINC000541315701    0.0700
     31 H31        -4.2300    5.3114   52.8857 H       1  ZINC000541315701    0.1200
     32 H32        -3.1335    5.4483   51.4754 H       1  ZINC000541315701    0.1100
     33 H33        -7.3823    5.7935   49.5802 H       1  ZINC000541315701    0.0900
     34 H34        -7.2198    4.1195   48.9973 H       1  ZINC000541315701    0.0700
     35 H35        -8.1572    4.4616   50.4714 H       1  ZINC000541315701    0.0600
     36 H36        -7.9630    1.9573   51.4195 H       1  ZINC000541315701    0.1300
     37 H37        -9.2795    1.4299   53.4324 H       1  ZINC000541315701    0.1400
     38 H38        -8.4941    2.1682   55.6458 H       1  ZINC000541315701    0.1400
     39 H39        -5.0696    3.9551   53.8329 H       1  ZINC000541315701    0.1400
     40 H40        -0.6071   -0.0360   47.7545 H       1  ZINC000541315701    0.1700
     41 H41         1.1576    1.4080   46.8336 H       1  ZINC000541315701    0.1500
     42 H42         1.4890    3.6837   47.7784 H       1  ZINC000541315701    0.1500
@<TRIPOS>BOND
     1     1     2    1
     2     1    28    1
     3     1    29    1
     4     1    30    1
     5     2     3   am
     6     2    21    1
     7     3     4    2
     8     3     5    1
     9     5     6    1
    10     5    12    1
    11     5     7    1
    12     7     8    1
    13     7    31    1
    14     7    32    1
    15     8     9    2
    16     8    10   am
    17    10    11    1
    18    10    12    1
    19    11    33    1
    20    11    34    1
    21    11    35    1
    22    12    13    1
    23    12    14    1
    24    14    20   ar
    25    14    15   ar
    26    15    16   ar
    27    15    36    1
    28    16    17   ar
    29    16    37    1
    30    17    18   ar
    31    17    38    1
    32    18    19    1
    33    18    20   ar
    34    20    39    1
    35    21    26   ar
    36    21    22   ar
    37    22    23   ar
    38    23    24   ar
    39    23    40    1
    40    24    25   ar
    41    24    41    1
    42    25    26   ar
    43    25    42    1
    44    26    27    1
@<TRIPOS>SUBSTRUCTURE
     1 ZINC000541315701        1 TEMP              0 ****  ****    0 ROOT


##########                                Name:    ZINC000154446008
##########                DOCK_Rotatable_Bonds:                   5
##########                         Heavy_Atoms:                  24
##########                    Molecular_Weight:              349.41
##########                DOCK_Rotatable_Bonds:                   5
##########                       Formal_Charge:          -0.0199999
##########                     HBond_Acceptors:                   8
##########                        HBond_Donors:                   0
##########                         Heavy_Atoms:                  24
##########                          Grid_Score:          -23.275951
##########                     Grid_vdw_energy:          -22.978056
##########                      Grid_es_energy:           -0.297895
##########           Internal_energy_repulsive:           14.975569

@<TRIPOS>MOLECULE
ZINC000154446008
 43 45 1 0 0
SMALL
USER_CHARGES


@<TRIPOS>ATOM
      1 O1         -7.2521    1.7427   51.0526 O.2     1  ZINC000154446008   -0.5000
      2 C2         -6.5101    2.6013   51.4924 C.2     1  ZINC000154446008    0.5900
      3 C3         -6.8633    3.3152   52.7230 C.2     1  ZINC000154446008   -0.2300
      4 C4         -7.1688    4.6443   52.8085 C.2     1  ZINC000154446008   -0.0600
      5 C5         -7.4632    5.0533   54.0875 C.2     1  ZINC000154446008   -0.0500
      6 C6         -7.4016    4.0940   55.0185 C.2     1  ZINC000154446008   -0.2100
      7 N7         -7.6779    4.3028   56.4578 N.pl3   1  ZINC000154446008    0.0500
      8 O8         -7.1730    3.5679   57.2876 O.2     1  ZINC000154446008   -0.1300
      9 O9         -8.4100    5.2094   56.8121 O.2     1  ZINC000154446008   -0.1500
     10 S10        -6.9692    2.5966   54.3242 S.3     1  ZINC000154446008    0.3500
     11 N11        -5.3610    2.8920   50.8508 N.am    1  ZINC000154446008   -0.6100
     12 C12        -4.4496    3.9179   51.3768 C.3     1  ZINC000154446008    0.0800
     13 C13        -3.0609    3.2929   51.5589 C.3     1  ZINC000154446008    0.0900
     14 N14        -2.6967    2.5892   50.3211 N.am    1  ZINC000154446008   -0.6100
     15 C15        -1.5471    2.8793   49.6801 C.2     1  ZINC000154446008    0.5500
     16 O16        -0.8005    3.7299   50.1253 O.2     1  ZINC000154446008   -0.5300
     17 C17        -1.1954    2.1669   48.4421 C.2     1  ZINC000154446008   -0.1500
     18 C18        -0.7446    0.9351   48.5426 C.2     1  ZINC000154446008   -0.1100
     19 C19        -0.3401    0.0955   47.3661 C.3     1  ZINC000154446008   -0.1000
     20 C20        -0.9134    0.6857   46.0760 C.3     1  ZINC000154446008   -0.1200
     21 C21        -0.5796    2.1820   46.0348 C.3     1  ZINC000154446008   -0.1200
     22 C22        -1.3773    2.8853   47.1369 C.3     1  ZINC000154446008   -0.0700
     23 C23        -3.6081    1.5633   49.7951 C.3     1  ZINC000154446008    0.1000
     24 C24        -4.9940    2.1844   49.6161 C.3     1  ZINC000154446008    0.1000
     25 H25        -7.1779    5.3075   51.9562 H       1  ZINC000154446008    0.1800
     26 H26        -7.7248    6.0741   54.3238 H       1  ZINC000154446008    0.1800
     27 H27        -4.3877    4.7479   50.6730 H       1  ZINC000154446008    0.0900
     28 H28        -4.8182    4.2766   52.3378 H       1  ZINC000154446008    0.0900
     29 H29        -2.3309    4.0763   51.7627 H       1  ZINC000154446008    0.1100
     30 H30        -3.0838    2.5860   52.3884 H       1  ZINC000154446008    0.0800
     31 H31        -0.6604    0.5031   49.5289 H       1  ZINC000154446008    0.1100
     32 H32         0.7473    0.0679   47.2987 H       1  ZINC000154446008    0.0900
     33 H33        -0.7180   -0.9183   47.4987 H       1  ZINC000154446008    0.0800
     34 H34        -0.4675    0.1871   45.2154 H       1  ZINC000154446008    0.0700
     35 H35        -1.9950    0.5512   46.0607 H       1  ZINC000154446008    0.0700
     36 H36         0.4878    2.3239   46.2035 H       1  ZINC000154446008    0.0700
     37 H37        -0.8575    2.5926   45.0640 H       1  ZINC000154446008    0.0700
     38 H38        -2.4335    2.8957   46.8679 H       1  ZINC000154446008    0.0800
     39 H39        -1.0230    3.9108   47.2410 H       1  ZINC000154446008    0.0700
     40 H40        -3.2395    1.2046   48.8341 H       1  ZINC000154446008    0.1100
     41 H41        -3.6699    0.7333   50.4990 H       1  ZINC000154446008    0.0800
     42 H42        -5.7229    1.4000   49.4123 H       1  ZINC000154446008    0.1100
     43 H43        -4.9735    2.8922   48.7875 H       1  ZINC000154446008    0.0800
@<TRIPOS>BOND
     1     1     2    2
     2     2     3    1
     3     2    11   am
     4     3    10    1
     5     3     4    2
     6     4     5    1
     7     4    25    1
     8     5     6    2
     9     5    26    1
    10     6     7    1
    11     6    10    1
    12     7     8    2
    13     7     9    2
    14    11    24    1
    15    11    12    1
    16    12    13    1
    17    12    27    1
    18    12    28    1
    19    13    14    1
    20    13    29    1
    21    13    30    1
    22    14    15   am
    23    14    23    1
    24    15    16    2
    25    15    17    1
    26    17    22    1
    27    17    18    2
    28    18    19    1
    29    18    31    1
    30    19    20    1
    31    19    32    1
    32    19    33    1
    33    20    21    1
    34    20    34    1
    35    20    35    1
    36    21    22    1
    37    21    36    1
    38    21    37    1
    39    22    38    1
    40    22    39    1
    41    23    24    1
    42    23    40    1
    43    23    41    1
    44    24    42    1
    45    24    43    1
@<TRIPOS>SUBSTRUCTURE
     1 ZINC000154446008        1 TEMP              0 ****  ****    0 ROOT


##########                                Name:    ZINC000004040798
##########                DOCK_Rotatable_Bonds:                   3
##########                         Heavy_Atoms:                  22
##########                    Molecular_Weight:             361.151
##########                DOCK_Rotatable_Bonds:                   3
##########                       Formal_Charge:           0.0200003
##########                     HBond_Acceptors:                   6
##########                        HBond_Donors:                   1
##########                         Heavy_Atoms:                  22
##########                          Grid_Score:          -23.201162
##########                     Grid_vdw_energy:          -22.896917
##########                      Grid_es_energy:           -0.304245
##########           Internal_energy_repulsive:            2.047126

@<TRIPOS>MOLECULE
ZINC000004040798
 31 33 1 0 0
SMALL
USER_CHARGES


@<TRIPOS>ATOM
      1 O1         -2.9279    0.7478   49.9286 O.2     1  ZINC000004040798   -0.4800
      2 C2         -3.3732    1.8081   49.5313 C.2     1  ZINC000004040798    0.6100
      3 N3         -2.6513    2.5669   48.6831 N.am    1  ZINC000004040798   -0.6600
      4 C4         -1.3878    2.1383   48.2640 C.ar    1  ZINC000004040798    0.2300
      5 C5         -1.2709    1.2476   47.2051 C.ar    1  ZINC000004040798   -0.1300
      6 C6         -0.0215    0.8260   46.7936 C.ar    1  ZINC000004040798   -0.0100
      7 C7          1.1125    1.2896   47.4345 C.ar    1  ZINC000004040798   -0.0600
      8 N8          2.4494    0.8354   46.9904 N.pl3   1  ZINC000004040798    0.0300
      9 O9          2.5497    0.0541   46.0614 O.2     1  ZINC000004040798   -0.1500
     10 O10         3.4494    1.2430   47.5540 O.2     1  ZINC000004040798   -0.1500
     11 C11         1.0005    2.1772   48.4892 C.ar    1  ZINC000004040798    0.0000
     12 C12        -0.2457    2.6072   48.9027 C.ar    1  ZINC000004040798   -0.1400
     13 Br13       -0.3982    3.8208   50.3448 Br      1  ZINC000004040798    0.0000
     14 C14        -4.7007    2.2585   49.9717 C.2     1  ZINC000004040798   -0.0500
     15 C15        -5.4623    1.6432   50.9132 C.2     1  ZINC000004040798   -0.0800
     16 C16        -6.6874    2.4342   51.0236 C.ar    1  ZINC000004040798   -0.1500
     17 C17        -7.8454    2.3325   51.7977 C.ar    1  ZINC000004040798   -0.0500
     18 C18        -8.8370    3.2626   51.6585 C.ar    1  ZINC000004040798   -0.1400
     19 C19        -8.7005    4.3060   50.7534 C.ar    1  ZINC000004040798   -0.0700
     20 C20        -7.5656    4.4241   49.9802 C.ar    1  ZINC000004040798   -0.1100
     21 C21        -6.5434    3.4905   50.1046 C.ar    1  ZINC000004040798    0.0800
     22 O22        -5.3447    3.3491   49.5060 O.3     1  ZINC000004040798   -0.1900
     23 H23        -3.0082    3.4103   48.3633 H       1  ZINC000004040798    0.4300
     24 H24        -2.1562    0.8845   46.7041 H       1  ZINC000004040798    0.1800
     25 H25         0.0697    0.1329   45.9703 H       1  ZINC000004040798    0.1700
     26 H26         1.8883    2.5375   48.9877 H       1  ZINC000004040798    0.1700
     27 H27        -5.2137    0.7502   51.4676 H       1  ZINC000004040798    0.1800
     28 H28        -7.9570    1.5223   52.5030 H       1  ZINC000004040798    0.1400
     29 H29        -9.7330    3.1851   52.2564 H       1  ZINC000004040798    0.1400
     30 H30        -9.4926    5.0333   50.6536 H       1  ZINC000004040798    0.1400
     31 H31        -7.4705    5.2405   49.2795 H       1  ZINC000004040798    0.1400
@<TRIPOS>BOND
     1     1     2    2
     2     2     3   am
     3     2    14    1
     4     3     4    1
     5     3    23    1
     6     4    12   ar
     7     4     5   ar
     8     5     6   ar
     9     5    24    1
    10     6     7   ar
    11     6    25    1
    12     7     8    1
    13     7    11   ar
    14     8     9    2
    15     8    10    2
    16    11    12   ar
    17    11    26    1
    18    12    13    1
    19    14    22    1
    20    14    15    2
    21    15    16    1
    22    15    27    1
    23    16    21   ar
    24    16    17   ar
    25    17    18   ar
    26    17    28    1
    27    18    19   ar
    28    18    29    1
    29    19    20   ar
    30    19    30    1
    31    20    21   ar
    32    20    31    1
    33    21    22    1
@<TRIPOS>SUBSTRUCTURE
     1 ZINC000004040798        1 TEMP              0 ****  ****    0 ROOT


##########                                Name:    ZINC000826324849
##########                DOCK_Rotatable_Bonds:                   4
##########                         Heavy_Atoms:                  27
##########                    Molecular_Weight:             395.374
##########                DOCK_Rotatable_Bonds:                   4
##########                       Formal_Charge:           0.0400001
##########                     HBond_Acceptors:                  13
##########                        HBond_Donors:                   1
##########                         Heavy_Atoms:                  27
##########                          Grid_Score:          -23.154341
##########                     Grid_vdw_energy:          -19.378574
##########                      Grid_es_energy:           -3.775766
##########           Internal_energy_repulsive:           86.355766

@<TRIPOS>MOLECULE
ZINC000826324849
 41 44 1 0 0
SMALL
USER_CHARGES


@<TRIPOS>ATOM
      1 C1        -17.0954    2.5487   56.9172 C.3     1  ZINC000826324849   -0.0600
      2 C2        -15.8777    2.6296   57.8014 C.2     1  ZINC000826324849    0.2000
      3 N3        -15.7994    2.2639   59.0582 N.2     1  ZINC000826324849   -0.4600
      4 C4        -14.5322    2.5173   59.4308 C.2     1  ZINC000826324849    0.1600
      5 C5        -13.9364    2.2693   60.7925 C.3     1  ZINC000826324849    0.2200
      6 H6        -12.9954    2.8116   60.8859 H       1  ZINC000826324849    0.1300
      7 C7        -14.9128    2.7392   61.8768 C.3     1  ZINC000826324849    0.0600
      8 O8        -14.4250    2.3331   63.1577 O.3     1  ZINC000826324849   -0.3600
      9 C9        -14.3317    0.9166   63.3263 C.3     1  ZINC000826324849    0.0400
     10 C10       -13.3254    0.3533   62.3164 C.3     1  ZINC000826324849    0.0800
     11 N11       -13.6981    0.8286   60.9743 N.am    1  ZINC000826324849   -1.0100
     12 S12       -13.8464   -0.2269   59.7069 S.o2    1  ZINC000826324849    2.7100
     13 O13       -14.7460   -1.2411   60.1325 O.2     1  ZINC000826324849   -0.9300
     14 O14       -14.0613    0.5661   58.5475 O.2     1  ZINC000826324849   -0.9300
     15 C15       -12.2815   -1.0077   59.4925 C.ar    1  ZINC000826324849   -0.5800
     16 C16       -11.1761   -0.5384   60.1726 C.ar    1  ZINC000826324849   -0.0400
     17 C17        -9.9461   -1.1495   60.0061 C.ar    1  ZINC000826324849   -0.0800
     18 C18        -9.8157   -2.2334   59.1578 C.ar    1  ZINC000826324849   -0.1100
     19 C19       -10.9162   -2.7126   58.4710 C.ar    1  ZINC000826324849    0.1300
     20 F20       -10.7888   -3.7720   57.6424 F       1  ZINC000826324849   -0.1100
     21 C21       -12.1595   -2.1031   58.6407 C.ar    1  ZINC000826324849    0.0500
     22 C22       -13.3452   -2.6123   57.9072 C.2     1  ZINC000826324849    0.1800
     23 N23       -14.2949   -3.3894   58.3887 N.2     1  ZINC000826324849   -0.2600
     24 N24       -15.1432   -3.6074   57.4432 N.pl3   1  ZINC000826324849   -0.2200
     25 N25       -14.7611   -2.9932   56.3784 N.2     1  ZINC000826324849   -0.0200
     26 N26       -13.6617   -2.3666   56.6279 N.2     1  ZINC000826324849   -0.2600
     27 N27       -13.9158    3.0148   58.4007 N.2     1  ZINC000826324849   -0.3800
     28 O28       -14.6695    3.0823   57.4526 O.3     1  ZINC000826324849    0.0900
     29 H29       -16.8483    2.9221   55.9234 H       1  ZINC000826324849    0.1000
     30 H30       -17.4234    1.5118   56.8445 H       1  ZINC000826324849    0.1100
     31 H31       -17.8951    3.1537   57.3441 H       1  ZINC000826324849    0.1100
     32 H32       -14.9954    3.8256   61.8462 H       1  ZINC000826324849    0.1200
     33 H33       -15.8923    2.2940   61.7024 H       1  ZINC000826324849    0.0600
     34 H34       -13.9960    0.6917   64.3388 H       1  ZINC000826324849    0.1200
     35 H35       -15.3091    0.4647   63.1572 H       1  ZINC000826324849    0.0600
     36 H36       -12.3228    0.7022   62.5635 H       1  ZINC000826324849    0.0900
     37 H37       -13.3518   -0.7361   62.3404 H       1  ZINC000826324849    0.1100
     38 H38       -11.2714    0.3084   60.8362 H       1  ZINC000826324849    0.1400
     39 H39        -9.0843   -0.7783   60.5407 H       1  ZINC000826324849    0.1500
     40 H40        -8.8530   -2.7062   59.0311 H       1  ZINC000826324849    0.1500
     41 H41       -15.9436   -4.1496   57.5215 H       1  ZINC000826324849    0.4800
@<TRIPOS>BOND
     1     1     2    1
     2     1    29    1
     3     1    30    1
     4     1    31    1
     5     2    28    1
     6     2     3    2
     7     3     4    1
     8     4     5    1
     9     4    27    2
    10     5     6    1
    11     5    11    1
    12     5     7    1
    13     7     8    1
    14     7    32    1
    15     7    33    1
    16     8     9    1
    17     9    10    1
    18     9    34    1
    19     9    35    1
    20    10    11    1
    21    10    36    1
    22    10    37    1
    23    11    12   am
    24    12    13    2
    25    12    14    2
    26    12    15    1
    27    15    21   ar
    28    15    16   ar
    29    16    17   ar
    30    16    38    1
    31    17    18   ar
    32    17    39    1
    33    18    19   ar
    34    18    40    1
    35    19    20    1
    36    19    21   ar
    37    21    22    1
    38    22    26    1
    39    22    23    2
    40    23    24    1
    41    24    25    1
    42    24    41    1
    43    25    26    2
    44    27    28    1
@<TRIPOS>SUBSTRUCTURE
     1 ZINC000826324849        1 TEMP              0 ****  ****    0 ROOT


##########                                Name:    ZINC000965273005
##########                DOCK_Rotatable_Bonds:                   7
##########                         Heavy_Atoms:                  27
##########                    Molecular_Weight:             368.436
##########                DOCK_Rotatable_Bonds:                   7
##########                       Formal_Charge:           0.0100003
##########                     HBond_Acceptors:                   7
##########                        HBond_Donors:                   2
##########                         Heavy_Atoms:                  27
##########                          Grid_Score:          -23.140528
##########                     Grid_vdw_energy:          -22.893507
##########                      Grid_es_energy:           -0.247021
##########           Internal_energy_repulsive:           10.949401

@<TRIPOS>MOLECULE
ZINC000965273005
 51 54 1 0 0
SMALL
USER_CHARGES


@<TRIPOS>ATOM
      1 C1        -11.3370    2.4219   56.2848 C.3     1  ZINC000965273005   -0.1200
      2 C2        -10.7145    1.7802   55.0717 C.ar    1  ZINC000965273005   -0.0300
      3 C3         -9.5624    2.3067   54.5256 C.ar    1  ZINC000965273005   -0.1200
      4 C4         -8.9896    1.7187   53.4117 C.ar    1  ZINC000965273005   -0.0900
      5 C5         -9.5669    0.5998   52.8386 C.ar    1  ZINC000965273005   -0.1300
      6 C6        -10.7194    0.0630   53.3750 C.ar    1  ZINC000965273005   -0.0900
      7 C7        -11.2993    0.6481   54.5014 C.ar    1  ZINC000965273005   -0.1300
      8 C8        -12.5342    0.0783   55.0814 C.2     1  ZINC000965273005    0.5800
      9 O9        -13.6079    0.6034   54.8604 O.2     1  ZINC000965273005   -0.5200
     10 N10       -12.4692   -1.0232   55.8553 N.am    1  ZINC000965273005   -0.6100
     11 C11       -11.2384   -1.7539   56.2083 C.3     1  ZINC000965273005    0.0900
     12 C12       -11.5772   -2.4859   57.5307 C.3     1  ZINC000965273005    0.1500
     13 H13       -10.9496   -3.3675   57.6612 H       1  ZINC000965273005    0.1200
     14 N14       -11.4539   -1.5827   58.6775 N.am    1  ZINC000965273005   -0.7100
     15 C15       -10.2374   -1.2970   59.1825 C.2     1  ZINC000965273005    0.6000
     16 O16        -9.2422   -1.7902   58.6872 O.2     1  ZINC000965273005   -0.5400
     17 C17       -10.1132   -0.3866   60.3355 C.2     1  ZINC000965273005   -0.2800
     18 C18        -8.9920    0.3351   60.6925 C.2     1  ZINC000965273005    0.1000
     19 N19        -9.2989    1.0340   61.7971 N.pl3   1  ZINC000965273005   -0.3600
     20 C20        -8.3975    1.9374   62.5165 C.3     1  ZINC000965273005    0.1000
     21 N21       -10.6252    0.7545   62.1449 N.2     1  ZINC000965273005   -0.3000
     22 C22       -11.1212   -0.0850   61.2785 C.2     1  ZINC000965273005    0.1700
     23 C23       -12.5209   -0.6435   61.2876 C.3     1  ZINC000965273005   -0.0800
     24 C24       -13.5384    0.0157   62.2208 C.3     1  ZINC000965273005   -0.1700
     25 C25       -13.6345    0.2319   60.7093 C.3     1  ZINC000965273005   -0.1600
     26 C26       -13.0574   -2.8870   57.2943 C.3     1  ZINC000965273005    0.0900
     27 H27       -13.1195   -3.8076   56.7139 H       1  ZINC000965273005    0.0900
     28 O28       -13.7479   -3.0276   58.5374 O.3     1  ZINC000965273005   -0.5500
     29 C29       -13.6133   -1.6915   56.4925 C.3     1  ZINC000965273005    0.0600
     30 H30       -10.9914    1.9113   57.1836 H       1  ZINC000965273005    0.0800
     31 H31       -11.0477    3.4718   56.3293 H       1  ZINC000965273005    0.0700
     32 H32       -12.4224    2.3467   56.2189 H       1  ZINC000965273005    0.0700
     33 H33        -9.1068    3.1801   54.9683 H       1  ZINC000965273005    0.1300
     34 H34        -8.0879    2.1353   52.9877 H       1  ZINC000965273005    0.1300
     35 H35        -9.1148    0.1455   51.9693 H       1  ZINC000965273005    0.1300
     36 H36       -11.1693   -0.8104   52.9264 H       1  ZINC000965273005    0.1300
     37 H37       -10.9880   -2.4740   55.4293 H       1  ZINC000965273005    0.0900
     38 H38       -10.4142   -1.0570   56.3609 H       1  ZINC000965273005    0.0900
     39 H39       -12.2477   -1.1902   59.0734 H       1  ZINC000965273005    0.4000
     40 H40        -8.0423    0.3369   60.1783 H       1  ZINC000965273005    0.1800
     41 H41        -8.4925    2.9446   62.1108 H       1  ZINC000965273005    0.0800
     42 H42        -8.6595    1.9456   63.5745 H       1  ZINC000965273005    0.1000
     43 H43        -7.3696    1.5940   62.3995 H       1  ZINC000965273005    0.0900
     44 H44       -12.5985   -1.7204   61.1381 H       1  ZINC000965273005    0.1400
     45 H45       -14.2856   -0.6275   62.6858 H       1  ZINC000965273005    0.1000
     46 H46       -13.1955    0.8534   62.8282 H       1  ZINC000965273005    0.1000
     47 H47       -13.3548    1.2117   60.3222 H       1  ZINC000965273005    0.0900
     48 H48       -14.4449   -0.2691   60.1797 H       1  ZINC000965273005    0.1000
     49 H49       -13.7696   -3.9335   58.8749 H       1  ZINC000965273005    0.3900
     50 H50       -14.1256   -1.0015   57.1629 H       1  ZINC000965273005    0.0800
     51 H51       -14.3022   -2.0473   55.7262 H       1  ZINC000965273005    0.0800
@<TRIPOS>BOND
     1     1     2    1
     2     1    30    1
     3     1    31    1
     4     1    32    1
     5     2     7   ar
     6     2     3   ar
     7     3     4   ar
     8     3    33    1
     9     4     5   ar
    10     4    34    1
    11     5     6   ar
    12     5    35    1
    13     6     7   ar
    14     6    36    1
    15     7     8    1
    16     8     9    2
    17     8    10   am
    18    10    29    1
    19    10    11    1
    20    11    12    1
    21    11    37    1
    22    11    38    1
    23    12    13    1
    24    12    14    1
    25    12    26    1
    26    14    15   am
    27    14    39    1
    28    15    16    2
    29    15    17    1
    30    17    22    1
    31    17    18    2
    32    18    19    1
    33    18    40    1
    34    19    20    1
    35    19    21    1
    36    20    41    1
    37    20    42    1
    38    20    43    1
    39    21    22    2
    40    22    23    1
    41    23    25    1
    42    23    24    1
    43    23    44    1
    44    24    25    1
    45    24    45    1
    46    24    46    1
    47    25    47    1
    48    25    48    1
    49    26    27    1
    50    26    28    1
    51    26    29    1
    52    28    49    1
    53    29    50    1
    54    29    51    1
@<TRIPOS>SUBSTRUCTURE
     1 ZINC000965273005        1 TEMP              0 ****  ****    0 ROOT


##########                                Name:    ZINC000828026236
##########                DOCK_Rotatable_Bonds:                   1
##########                         Heavy_Atoms:                  19
##########                    Molecular_Weight:             383.045
##########                DOCK_Rotatable_Bonds:                   1
##########                       Formal_Charge:                   0
##########                     HBond_Acceptors:                   5
##########                        HBond_Donors:                   0
##########                         Heavy_Atoms:                  19
##########                          Grid_Score:          -23.119974
##########                     Grid_vdw_energy:          -22.384691
##########                      Grid_es_energy:           -0.735282
##########           Internal_energy_repulsive:            2.907757

@<TRIPOS>MOLECULE
ZINC000828026236
 28 30 1 0 0
SMALL
USER_CHARGES


@<TRIPOS>ATOM
      1 N1         -9.5038    2.3574   58.7649 N.1     1  ZINC000828026236   -0.3800
      2 C2         -9.2939    1.9012   59.7839 C.1     1  ZINC000828026236    0.2600
      3 C3         -9.0293    1.3262   61.0683 C.ar    1  ZINC000828026236   -0.0500
      4 C4         -8.0805    1.8980   61.9232 C.ar    1  ZINC000828026236    0.0100
      5 C5         -7.8617    1.3036   63.1547 C.ar    1  ZINC000828026236   -0.1600
      6 Br6        -6.5923    2.0319   64.3522 Br      1  ZINC000828026236   -0.0100
      7 C7         -8.5795    0.1728   63.5024 C.ar    1  ZINC000828026236    0.1800
      8 N8         -9.4699   -0.3507   62.6817 N.ar    1  ZINC000828026236   -0.5000
      9 C9         -9.7223    0.1803   61.4960 C.ar    1  ZINC000828026236    0.3600
     10 N10       -10.6653   -0.4031   60.6672 N.3     1  ZINC000828026236   -0.4900
     11 C11       -11.7198   -1.0620   61.4509 C.3     1  ZINC000828026236    0.0500
     12 C12       -12.9206   -1.3678   60.5466 C.3     1  ZINC000828026236    0.1100
     13 N13       -12.4277   -2.0411   59.3422 N.pl3   1  ZINC000828026236   -0.4400
     14 C14       -13.1282   -2.7565   58.4211 C.2     1  ZINC000828026236   -0.0300
     15 Br15      -14.9889   -3.0934   58.4293 Br      1  ZINC000828026236    0.0200
     16 C16       -12.2359   -3.1791   57.4999 C.2     1  ZINC000828026236    0.0300
     17 N17       -11.0216   -2.7275   57.8574 N.2     1  ZINC000828026236   -0.4700
     18 C18       -11.1263   -2.0447   58.9571 C.2     1  ZINC000828026236    0.2300
     19 C19       -10.0323   -1.3454   59.7283 C.3     1  ZINC000828026236    0.1500
     20 H20        -7.5320    2.7809   61.6297 H       1  ZINC000828026236    0.1600
     21 H21        -8.4075   -0.2897   64.4630 H       1  ZINC000828026236    0.1800
     22 H22       -11.3339   -1.9921   61.8684 H       1  ZINC000828026236    0.0700
     23 H23       -12.0341   -0.4043   62.2613 H       1  ZINC000828026236    0.1100
     24 H24       -13.6199   -2.0186   61.0715 H       1  ZINC000828026236    0.1100
     25 H25       -13.4189   -0.4386   60.2704 H       1  ZINC000828026236    0.1000
     26 H26       -12.4590   -3.7761   56.6280 H       1  ZINC000828026236    0.1800
     27 H27        -9.3868   -0.8006   59.0393 H       1  ZINC000828026236    0.1200
     28 H28        -9.4456   -2.0785   60.2817 H       1  ZINC000828026236    0.1000
@<TRIPOS>BOND
     1     1     2    3
     2     2     3    1
     3     3     9   ar
     4     3     4   ar
     5     4     5   ar
     6     4    20    1
     7     5     6    1
     8     5     7   ar
     9     7     8   ar
    10     7    21    1
    11     8     9   ar
    12     9    10    1
    13    10    19    1
    14    10    11    1
    15    11    12    1
    16    11    22    1
    17    11    23    1
    18    12    13    1
    19    12    24    1
    20    12    25    1
    21    13    18    1
    22    13    14    1
    23    14    15    1
    24    14    16    2
    25    16    17    1
    26    16    26    1
    27    17    18    2
    28    18    19    1
    29    19    27    1
    30    19    28    1
@<TRIPOS>SUBSTRUCTURE
     1 ZINC000828026236        1 TEMP              0 ****  ****    0 ROOT


##########                                Name:    ZINC000942661662
##########                DOCK_Rotatable_Bonds:                   6
##########                         Heavy_Atoms:                  25
##########                    Molecular_Weight:             343.426
##########                DOCK_Rotatable_Bonds:                   6
##########                       Formal_Charge:           0.0399997
##########                     HBond_Acceptors:                   6
##########                        HBond_Donors:                   1
##########                         Heavy_Atoms:                  25
##########                          Grid_Score:          -23.063885
##########                     Grid_vdw_energy:          -21.580177
##########                      Grid_es_energy:           -1.483708
##########           Internal_energy_repulsive:           31.453888

@<TRIPOS>MOLECULE
ZINC000942661662
 50 52 1 0 0
SMALL
USER_CHARGES


@<TRIPOS>ATOM
      1 C1         -8.4330    1.0445   59.2024 C.3     1  ZINC000942661662   -0.1700
      2 C2         -9.7199    1.8717   59.2234 C.3     1  ZINC000942661662    0.1000
      3 N3        -10.7095    1.2137   60.0802 N.am    1  ZINC000942661662   -0.6000
      4 C4        -11.1127    1.8061   61.2215 C.2     1  ZINC000942661662    0.6000
      5 O5        -11.9343    1.2600   61.9328 O.2     1  ZINC000942661662   -0.5200
      6 C6        -10.5581    3.1158   61.6078 C.2     1  ZINC000942661662   -0.2400
      7 C7         -9.3757    3.3553   62.2445 C.2     1  ZINC000942661662    0.0700
      8 C8         -8.3849    2.3094   62.6866 C.3     1  ZINC000942661662   -0.0900
      9 O9         -9.2452    4.6751   62.4095 O.3     1  ZINC000942661662   -0.1700
     10 C10       -10.3030    5.3280   61.9035 C.2     1  ZINC000942661662   -0.0300
     11 C11       -11.1607    4.4376   61.3819 C.2     1  ZINC000942661662   -0.1900
     12 C12       -11.2607   -0.0882   59.6961 C.3     1  ZINC000942661662    0.1400
     13 H13       -12.3077   -0.1685   59.9885 H       1  ZINC000942661662    0.1100
     14 C14       -10.4240   -1.2466   60.3005 C.3     1  ZINC000942661662   -0.1400
     15 C15       -10.6708   -2.4044   59.3105 C.3     1  ZINC000942661662    0.1000
     16 N16       -11.0879   -1.8058   58.0341 N.am    1  ZINC000942661662   -0.6200
     17 C17       -11.4177   -2.4859   56.9182 C.2     1  ZINC000942661662    0.6100
     18 O18       -11.3844   -3.7023   56.9149 O.2     1  ZINC000942661662   -0.5200
     19 C19       -11.8165   -1.7599   55.7078 C.2     1  ZINC000942661662   -0.0600
     20 C20       -13.0452   -1.1802   55.4729 C.2     1  ZINC000942661662   -0.0700
     21 C21       -14.2262   -1.1742   56.4089 C.3     1  ZINC000942661662   -0.0900
     22 C22       -12.9888   -0.5985   54.2024 C.2     1  ZINC000942661662   -0.2100
     23 C23       -11.7542   -0.8279   53.6948 C.2     1  ZINC000942661662    0.0500
     24 C24       -11.2633   -0.3729   52.3446 C.3     1  ZINC000942661662   -0.0900
     25 N25       -11.0302   -1.5279   54.6019 N.pl3   1  ZINC000942661662   -0.5400
     26 C26       -11.0877   -0.3381   58.1772 C.3     1  ZINC000942661662    0.0900
     27 H27        -7.6967    1.5340   58.5650 H       1  ZINC000942661662    0.0700
     28 H28        -8.0384    0.9607   60.2151 H       1  ZINC000942661662    0.0600
     29 H29        -8.6470    0.0494   58.8125 H       1  ZINC000942661662    0.0600
     30 H30        -9.5059    2.8667   59.6134 H       1  ZINC000942661662    0.0900
     31 H31       -10.1145    1.9555   58.2107 H       1  ZINC000942661662    0.0800
     32 H32        -7.6704    2.1238   61.8845 H       1  ZINC000942661662    0.0900
     33 H33        -7.8547    2.6621   63.5712 H       1  ZINC000942661662    0.0900
     34 H34        -8.9130    1.3858   62.9236 H       1  ZINC000942661662    0.1000
     35 H35       -10.4398    6.3993   61.9105 H       1  ZINC000942661662    0.2100
     36 H36       -12.1047    4.6485   60.9014 H       1  ZINC000942661662    0.1600
     37 H37        -9.3666   -0.9837   60.3307 H       1  ZINC000942661662    0.1000
     38 H38       -10.7865   -1.5059   61.2953 H       1  ZINC000942661662    0.0900
     39 H39        -9.7523   -2.9742   59.1701 H       1  ZINC000942661662    0.0700
     40 H40       -11.4588   -3.0550   59.6899 H       1  ZINC000942661662    0.0700
     41 H41       -14.1764   -0.2948   57.0511 H       1  ZINC000942661662    0.0700
     42 H42       -15.1490   -1.1491   55.8294 H       1  ZINC000942661662    0.0600
     43 H43       -14.2073   -2.0743   57.0234 H       1  ZINC000942661662    0.0800
     44 H44       -13.7881   -0.0619   53.7128 H       1  ZINC000942661662    0.1400
     45 H45       -10.8107    0.6144   52.4363 H       1  ZINC000942661662    0.0800
     46 H46       -10.5220   -1.0791   51.9706 H       1  ZINC000942661662    0.0700
     47 H47       -12.1021   -0.3251   51.6502 H       1  ZINC000942661662    0.0900
     48 H48       -10.1128   -1.8215   54.4885 H       1  ZINC000942661662    0.4100
     49 H49       -11.9192    0.0972   57.6228 H       1  ZINC000942661662    0.0800
     50 H50       -10.1413    0.0767   57.8305 H       1  ZINC000942661662    0.1000
@<TRIPOS>BOND
     1     1     2    1
     2     1    27    1
     3     1    28    1
     4     1    29    1
     5     2     3    1
     6     2    30    1
     7     2    31    1
     8     3     4   am
     9     3    12    1
    10     4     5    2
    11     4     6    1
    12     6    11    1
    13     6     7    2
    14     7     8    1
    15     7     9    1
    16     8    32    1
    17     8    33    1
    18     8    34    1
    19     9    10    1
    20    10    11    2
    21    10    35    1
    22    11    36    1
    23    12    13    1
    24    12    26    1
    25    12    14    1
    26    14    15    1
    27    14    37    1
    28    14    38    1
    29    15    16    1
    30    15    39    1
    31    15    40    1
    32    16    17   am
    33    16    26    1
    34    17    18    2
    35    17    19    1
    36    19    25    1
    37    19    20    2
    38    20    21    1
    39    20    22    1
    40    21    41    1
    41    21    42    1
    42    21    43    1
    43    22    23    2
    44    22    44    1
    45    23    24    1
    46    23    25    1
    47    24    45    1
    48    24    46    1
    49    24    47    1
    50    25    48    1
    51    26    49    1
    52    26    50    1
@<TRIPOS>SUBSTRUCTURE
     1 ZINC000942661662        1 TEMP              0 ****  ****    0 ROOT


##########                                Name:    ZINC001135312623
##########                DOCK_Rotatable_Bonds:                   3
##########                         Heavy_Atoms:                  25
##########                    Molecular_Weight:             341.323
##########                DOCK_Rotatable_Bonds:                   3
##########                       Formal_Charge:        -1.78814e-07
##########                     HBond_Acceptors:                   8
##########                        HBond_Donors:                   2
##########                         Heavy_Atoms:                  25
##########                          Grid_Score:          -22.852434
##########                     Grid_vdw_energy:          -21.624107
##########                      Grid_es_energy:           -1.228326
##########           Internal_energy_repulsive:          159.374100

@<TRIPOS>MOLECULE
ZINC001135312623
 40 42 1 0 0
SMALL
USER_CHARGES


@<TRIPOS>ATOM
      1 C1         -2.8226    5.2474   53.4410 C.3     1  ZINC001135312623   -0.1300
      2 C2         -1.4643    5.0618   54.0668 C.ar    1  ZINC001135312623   -0.0600
      3 C3         -1.1827    5.6365   55.2904 C.ar    1  ZINC001135312623   -0.1000
      4 C4          0.0638    5.4671   55.8653 C.ar    1  ZINC001135312623   -0.0300
      5 C5          0.3676    6.0957   57.2008 C.3     1  ZINC001135312623   -0.1300
      6 C6          1.0315    4.7217   55.2175 C.ar    1  ZINC001135312623   -0.0200
      7 N7          2.3642    4.5429   55.8364 N.pl3   1  ZINC001135312623    0.0200
      8 O8          3.3599    4.4990   55.1362 O.2     1  ZINC001135312623   -0.1500
      9 O9          2.4652    4.4397   57.0458 O.2     1  ZINC001135312623   -0.1500
     10 C10         0.7560    4.1434   53.9938 C.ar    1  ZINC001135312623   -0.0700
     11 C11        -0.4961    4.3076   53.4161 C.ar    1  ZINC001135312623    0.1500
     12 N12        -0.7784    3.7234   52.1772 N.am    1  ZINC001135312623   -0.6600
     13 C13         0.1657    3.0009   51.5421 C.2     1  ZINC001135312623    0.5600
     14 O14         1.2628    2.8571   52.0463 O.2     1  ZINC001135312623   -0.5000
     15 C15        -0.1322    2.3846   50.2349 C.ar    1  ZINC001135312623   -0.1600
     16 C16        -1.0126    3.0121   49.3496 C.ar    1  ZINC001135312623   -0.0400
     17 C17        -1.2908    2.4357   48.1296 C.ar    1  ZINC001135312623   -0.1500
     18 C18        -0.6948    1.2307   47.7805 C.ar    1  ZINC001135312623    0.2000
     19 N19        -0.9651    0.6283   46.5516 N.am    1  ZINC001135312623   -0.6700
     20 C20        -0.6413   -0.6658   46.3571 C.2     1  ZINC001135312623    0.6600
     21 O21        -0.8548   -1.1823   45.2781 O.2     1  ZINC001135312623   -0.4900
     22 O22        -0.0844   -1.3923   47.3427 O.3     1  ZINC001135312623   -0.3400
     23 C23         0.8174   -0.7032   48.2517 C.3     1  ZINC001135312623    0.1100
     24 C24         0.1851    0.6035   48.6613 C.ar    1  ZINC001135312623   -0.1800
     25 C25         0.4708    1.1739   49.8776 C.ar    1  ZINC001135312623    0.0000
     26 H26        -3.4862    4.4474   53.7690 H       1  ZINC001135312623    0.0900
     27 H27        -3.2348    6.2094   53.7458 H       1  ZINC001135312623    0.0800
     28 H28        -2.7292    5.2198   52.3553 H       1  ZINC001135312623    0.0700
     29 H29        -1.9365    6.2192   55.7989 H       1  ZINC001135312623    0.1500
     30 H30         0.0288    5.4351   57.9988 H       1  ZINC001135312623    0.0900
     31 H31         1.4422    6.2540   57.2917 H       1  ZINC001135312623    0.0800
     32 H32        -0.1485    7.0527   57.2776 H       1  ZINC001135312623    0.0800
     33 H33         1.5125    3.5613   53.4884 H       1  ZINC001135312623    0.1700
     34 H34        -1.6535    3.8382   51.7750 H       1  ZINC001135312623    0.4200
     35 H35        -1.4755    3.9492   49.6219 H       1  ZINC001135312623    0.1400
     36 H36        -1.9717    2.9202   47.4455 H       1  ZINC001135312623    0.1500
     37 H37        -1.3843    1.1380   45.8407 H       1  ZINC001135312623    0.4300
     38 H38         0.9881   -1.3195   49.1344 H       1  ZINC001135312623    0.1300
     39 H39         1.7652   -0.5093   47.7494 H       1  ZINC001135312623    0.1000
     40 H40         1.1554    0.6878   50.5569 H       1  ZINC001135312623    0.1500
@<TRIPOS>BOND
     1     1     2    1
     2     1    26    1
     3     1    27    1
     4     1    28    1
     5     2    11   ar
     6     2     3   ar
     7     3     4   ar
     8     3    29    1
     9     4     5    1
    10     4     6   ar
    11     5    30    1
    12     5    31    1
    13     5    32    1
    14     6     7    1
    15     6    10   ar
    16     7     8    2
    17     7     9    2
    18    10    11   ar
    19    10    33    1
    20    11    12    1
    21    12    13   am
    22    12    34    1
    23    13    14    2
    24    13    15    1
    25    15    25   ar
    26    15    16   ar
    27    16    17   ar
    28    16    35    1
    29    17    18   ar
    30    17    36    1
    31    18    24   ar
    32    18    19    1
    33    19    20   am
    34    19    37    1
    35    20    21    2
    36    20    22    1
    37    22    23    1
    38    23    24    1
    39    23    38    1
    40    23    39    1
    41    24    25   ar
    42    25    40    1
@<TRIPOS>SUBSTRUCTURE
     1 ZINC001135312623        1 TEMP              0 ****  ****    0 ROOT


##########                                Name:    ZINC000915315870
##########                DOCK_Rotatable_Bonds:                   4
##########                         Heavy_Atoms:                  24
##########                    Molecular_Weight:             357.381
##########                DOCK_Rotatable_Bonds:                   4
##########                       Formal_Charge:           0.0300002
##########                     HBond_Acceptors:                   9
##########                        HBond_Donors:                   1
##########                         Heavy_Atoms:                  24
##########                          Grid_Score:          -22.832266
##########                     Grid_vdw_energy:          -22.122343
##########                      Grid_es_energy:           -0.709924
##########           Internal_energy_repulsive:           35.139896

@<TRIPOS>MOLECULE
ZINC000915315870
 41 43 1 0 0
SMALL
USER_CHARGES


@<TRIPOS>ATOM
      1 C1        -11.2981   -2.7010   58.9963 C.3     1  ZINC000915315870    0.0300
      2 O2        -11.0703   -1.3174   58.7207 O.3     1  ZINC000915315870   -0.3200
      3 C3        -10.9196   -0.9645   57.4158 C.ar    1  ZINC000915315870    0.0800
      4 C4        -10.9706   -1.9334   56.4227 C.ar    1  ZINC000915315870    0.0900
      5 F5        -11.1707   -3.2285   56.7512 F       1  ZINC000915315870   -0.1100
      6 C6        -10.8170   -1.5712   55.0961 C.ar    1  ZINC000915315870   -0.0500
      7 C7        -10.6122   -0.2461   54.7591 C.ar    1  ZINC000915315870   -0.6300
      8 S8        -10.4164    0.2111   53.0688 S.o2    1  ZINC000915315870    2.7000
      9 O9         -9.4588    1.2607   53.0453 O.2     1  ZINC000915315870   -0.9400
     10 O10       -10.2606   -0.9996   52.3412 O.2     1  ZINC000915315870   -0.9400
     11 N11       -11.8498    0.8745   52.5712 N.am    1  ZINC000915315870   -1.1100
     12 C12       -13.0802    0.0809   52.6196 C.3     1  ZINC000915315870    0.2400
     13 H13       -12.8435   -0.9483   52.8893 H       1  ZINC000915315870    0.0900
     14 C14       -14.0415    0.6790   53.6545 C.3     1  ZINC000915315870   -0.1400
     15 C15       -15.4111    0.0069   53.5360 C.3     1  ZINC000915315870   -0.1100
     16 C16       -16.1064    0.4705   52.2499 C.3     1  ZINC000915315870   -0.0400
     17 C17       -15.1421    0.2933   51.1022 C.2     1  ZINC000915315870    0.0900
     18 N18       -15.4006    0.2769   49.8270 N.2     1  ZINC000915315870   -0.2900
     19 N19       -14.1931    0.0823   49.1392 N.pl3   1  ZINC000915315870   -0.3800
     20 C20       -14.0337    0.0009   47.6852 C.3     1  ZINC000915315870    0.1000
     21 C21       -13.2026   -0.0161   50.0542 C.2     1  ZINC000915315870    0.0800
     22 C22       -13.7587    0.1110   51.2723 C.2     1  ZINC000915315870   -0.2500
     23 C23       -10.5614    0.7212   55.7456 C.ar    1  ZINC000915315870   -0.0500
     24 C24       -10.7201    0.3662   57.0736 C.ar    1  ZINC000915315870    0.1000
     25 F25       -10.6703    1.3119   58.0371 F       1  ZINC000915315870   -0.1100
     26 H26       -11.4004   -2.8450   60.0719 H       1  ZINC000915315870    0.1100
     27 H27       -12.2117   -3.0250   58.4979 H       1  ZINC000915315870    0.0600
     28 H28       -10.4562   -3.2880   58.6295 H       1  ZINC000915315870    0.0500
     29 H29       -10.8566   -2.3244   54.3232 H       1  ZINC000915315870    0.1700
     30 H30       -11.8747    1.7886   52.2477 H       1  ZINC000915315870    0.4200
     31 H31       -13.6432    0.5163   54.6560 H       1  ZINC000915315870    0.0900
     32 H32       -14.1461    1.7493   53.4761 H       1  ZINC000915315870    0.0800
     33 H33       -15.2828   -1.0752   53.5088 H       1  ZINC000915315870    0.0700
     34 H34       -16.0232    0.2770   54.3965 H       1  ZINC000915315870    0.0800
     35 H35       -16.9986   -0.1313   52.0768 H       1  ZINC000915315870    0.0800
     36 H36       -16.3825    1.5212   52.3394 H       1  ZINC000915315870    0.0900
     37 H37       -13.8542    0.9979   47.2831 H       1  ZINC000915315870    0.0800
     38 H38       -13.1877   -0.6442   47.4481 H       1  ZINC000915315870    0.0900
     39 H39       -14.9404   -0.4116   47.2429 H       1  ZINC000915315870    0.0900
     40 H40       -12.1542   -0.1694   49.8450 H       1  ZINC000915315870    0.1700
     41 H41       -10.4017    1.7555   55.4792 H       1  ZINC000915315870    0.1700
@<TRIPOS>BOND
     1     1     2    1
     2     1    26    1
     3     1    27    1
     4     1    28    1
     5     2     3    1
     6     3    24   ar
     7     3     4   ar
     8     4     5    1
     9     4     6   ar
    10     6     7   ar
    11     6    29    1
    12     7     8    1
    13     7    23   ar
    14     8     9    2
    15     8    10    2
    16     8    11   am
    17    11    12    1
    18    11    30    1
    19    12    13    1
    20    12    22    1
    21    12    14    1
    22    14    15    1
    23    14    31    1
    24    14    32    1
    25    15    16    1
    26    15    33    1
    27    15    34    1
    28    16    17    1
    29    16    35    1
    30    16    36    1
    31    17    22    1
    32    17    18    2
    33    18    19    1
    34    19    20    1
    35    19    21    1
    36    20    37    1
    37    20    38    1
    38    20    39    1
    39    21    22    2
    40    21    40    1
    41    23    24   ar
    42    23    41    1
    43    24    25    1
@<TRIPOS>SUBSTRUCTURE
     1 ZINC000915315870        1 TEMP              0 ****  ****    0 ROOT


##########                                Name:    ZINC000569288350
##########                DOCK_Rotatable_Bonds:                   3
##########                         Heavy_Atoms:                  19
##########                    Molecular_Weight:             393.559
##########                DOCK_Rotatable_Bonds:                   3
##########                       Formal_Charge:           0.0299999
##########                     HBond_Acceptors:                   5
##########                        HBond_Donors:                   1
##########                         Heavy_Atoms:                  19
##########                          Grid_Score:          -21.916351
##########                     Grid_vdw_energy:          -21.259050
##########                      Grid_es_energy:           -0.657301
##########           Internal_energy_repulsive:            6.712931

@<TRIPOS>MOLECULE
ZINC000569288350
 26 27 1 0 0
SMALL
USER_CHARGES


@<TRIPOS>ATOM
      1 O1          0.9356    3.1848   49.3691 O.2     1  ZINC000569288350   -0.4800
      2 C2          0.0726    2.7503   50.1074 C.2     1  ZINC000569288350    0.5700
      3 N3         -0.9009    1.9596   49.6139 N.am    1  ZINC000569288350   -0.6600
      4 C4         -0.9217    1.6433   48.2512 C.ar    1  ZINC000569288350    0.1800
      5 C5         -1.0155    2.6541   47.3039 C.ar    1  ZINC000569288350   -0.1200
      6 C6         -1.0360    2.3401   45.9586 C.ar    1  ZINC000569288350   -0.0600
      7 C7         -0.9638    1.0205   45.5534 C.ar    1  ZINC000569288350   -0.1500
      8 C8         -0.8701    0.0083   46.4944 C.ar    1  ZINC000569288350    0.1300
      9 F9         -0.7991   -1.2804   46.0953 F       1  ZINC000569288350   -0.1200
     10 C10        -0.8429    0.3174   47.8432 C.ar    1  ZINC000569288350   -0.1000
     11 Cl11       -0.7249   -0.9501   49.0234 Cl      1  ZINC000569288350   -0.0400
     12 C12         0.0947    3.0840   51.5452 C.ar    1  ZINC000569288350   -0.1400
     13 C13        -0.9376    3.8425   52.1066 C.ar    1  ZINC000569288350    0.1400
     14 F14        -1.9596    4.2725   51.3347 F       1  ZINC000569288350   -0.1200
     15 C15        -0.9089    4.1506   53.4546 C.ar    1  ZINC000569288350   -0.1300
     16 C16         0.1365    3.7110   54.2449 C.ar    1  ZINC000569288350   -0.0600
     17 C17         1.1613    2.9603   53.6950 C.ar    1  ZINC000569288350   -0.0900
     18 C18         1.1439    2.6390   52.3537 C.ar    1  ZINC000569288350   -0.0500
     19 I19         2.6973    1.5025   51.5262 I       1  ZINC000569288350    0.0000
     20 H20        -1.5870    1.6097   50.2036 H       1  ZINC000569288350    0.4200
     21 H21        -1.0728    3.6858   47.6187 H       1  ZINC000569288350    0.1600
     22 H22        -1.1090    3.1269   45.2224 H       1  ZINC000569288350    0.1500
     23 H23        -0.9808    0.7782   44.5011 H       1  ZINC000569288350    0.1500
     24 H24        -1.7049    4.7361   53.8905 H       1  ZINC000569288350    0.1500
     25 H25         0.1540    3.9547   55.2968 H       1  ZINC000569288350    0.1500
     26 H26         1.9747    2.6209   54.3193 H       1  ZINC000569288350    0.1500
@<TRIPOS>BOND
     1     1     2    2
     2     2     3   am
     3     2    12    1
     4     3     4    1
     5     3    20    1
     6     4    10   ar
     7     4     5   ar
     8     5     6   ar
     9     5    21    1
    10     6     7   ar
    11     6    22    1
    12     7     8   ar
    13     7    23    1
    14     8     9    1
    15     8    10   ar
    16    10    11    1
    17    12    18   ar
    18    12    13   ar
    19    13    14    1
    20    13    15   ar
    21    15    16   ar
    22    15    24    1
    23    16    17   ar
    24    16    25    1
    25    17    18   ar
    26    17    26    1
    27    18    19    1
@<TRIPOS>SUBSTRUCTURE
     1 ZINC000569288350        1 TEMP              0 ****  ****    0 ROOT


##########                                Name:    ZINC000793092912
##########                DOCK_Rotatable_Bonds:                   4
##########                         Heavy_Atoms:                  26
##########                    Molecular_Weight:               407.2
##########                DOCK_Rotatable_Bonds:                   4
##########                       Formal_Charge:         2.90573e-07
##########                     HBond_Acceptors:                  10
##########                        HBond_Donors:                   1
##########                         Heavy_Atoms:                  26
##########                          Grid_Score:          -21.387554
##########                     Grid_vdw_energy:          -22.767487
##########                      Grid_es_energy:            1.379932
##########           Internal_energy_repulsive:           17.460217

@<TRIPOS>MOLECULE
ZINC000793092912
 40 43 1 0 0
SMALL
USER_CHARGES


@<TRIPOS>ATOM
      1 C1         -6.3831    4.5568   55.1659 C.3     1  ZINC000793092912   -0.1300
      2 C2         -6.1022    4.5523   53.6619 C.3     1  ZINC000793092912   -0.0800
      3 C3         -5.2506    3.3939   53.1656 C.3     1  ZINC000793092912   -0.1100
      4 C4         -5.8786    2.6767   51.9854 C.3     1  ZINC000793092912    0.1100
      5 N5         -6.4678    3.6050   51.0353 N.am    1  ZINC000793092912   -0.5700
      6 C6         -6.0681    3.5592   49.7491 C.2     1  ZINC000793092912    0.5100
      7 O7         -6.5460    4.3244   48.9374 O.2     1  ZINC000793092912   -0.5100
      8 C8         -5.0370    2.5667   49.3225 C.2     1  ZINC000793092912    0.5100
      9 O9         -5.2602    1.3778   49.4247 O.2     1  ZINC000793092912   -0.4900
     10 N10        -3.8589    2.9908   48.8241 N.am    1  ZINC000793092912   -0.6400
     11 C11        -2.8933    2.0612   48.4246 C.ar    1  ZINC000793092912    0.1600
     12 C12        -2.5593    1.0039   49.2606 C.ar    1  ZINC000793092912   -0.1200
     13 C13        -1.6054    0.0847   48.8672 C.ar    1  ZINC000793092912   -0.0600
     14 C14        -0.9792    0.2155   47.6383 C.ar    1  ZINC000793092912    0.0200
     15 O15        -0.0213   -0.5420   47.0267 O.3     1  ZINC000793092912   -0.2800
     16 C16        -0.0669   -0.1701   45.6365 C.3     1  ZINC000793092912    0.5700
     17 F17         1.2130   -0.2142   45.0735 F       1  ZINC000793092912   -0.1100
     18 F18        -0.9410   -1.0055   44.9327 F       1  ZINC000793092912   -0.1500
     19 O19        -0.5630    1.1813   45.6597 O.3     1  ZINC000793092912   -0.2800
     20 C20        -1.3120    1.2754   46.7971 C.ar    1  ZINC000793092912    0.0500
     21 C21        -2.2721    2.1923   47.1890 C.ar    1  ZINC000793092912   -0.0900
     22 C22        -7.4744    4.5818   51.4227 C.3     1  ZINC000793092912    0.1100
     23 C23        -7.1368    5.2123   52.7656 C.3     1  ZINC000793092912   -0.1200
     24 H24        -7.9888    5.6437   53.2909 H       1  ZINC000793092912    0.1400
     25 C25        -5.8083    5.9129   53.0075 C.3     1  ZINC000793092912    0.0000
     26 Cl26       -5.8180    7.3801   54.0553 Cl      1  ZINC000793092912   -0.0800
     27 Cl27       -4.6157    5.9287   51.6552 Cl      1  ZINC000793092912   -0.0900
     28 H28        -7.3184    4.0325   55.3624 H       1  ZINC000793092912    0.0800
     29 H29        -5.5687    4.0554   55.6891 H       1  ZINC000793092912    0.0700
     30 H30        -6.4622    5.5853   55.5177 H       1  ZINC000793092912    0.0700
     31 H31        -4.2744    3.7761   52.8674 H       1  ZINC000793092912    0.0900
     32 H32        -5.1148    2.6818   53.9796 H       1  ZINC000793092912    0.1000
     33 H33        -5.1125    2.0897   51.4789 H       1  ZINC000793092912    0.1100
     34 H34        -6.6543    2.0040   52.3513 H       1  ZINC000793092912    0.0800
     35 H35        -3.6805    3.9408   48.7425 H       1  ZINC000793092912    0.4300
     36 H36        -3.0453    0.9000   50.2195 H       1  ZINC000793092912    0.1500
     37 H37        -1.3473   -0.7368   49.5190 H       1  ZINC000793092912    0.1500
     38 H38        -2.5354    3.0112   46.5361 H       1  ZINC000793092912    0.1600
     39 H39        -7.5127    5.3717   50.6725 H       1  ZINC000793092912    0.1400
     40 H40        -8.4467    4.0918   51.4734 H       1  ZINC000793092912    0.1000
@<TRIPOS>BOND
     1     1     2    1
     2     1    28    1
     3     1    29    1
     4     1    30    1
     5     2    23    1
     6     2    25    1
     7     2     3    1
     8     3     4    1
     9     3    31    1
    10     3    32    1
    11     4     5    1
    12     4    33    1
    13     4    34    1
    14     5     6   am
    15     5    22    1
    16     6     7    2
    17     6     8    1
    18     8     9    2
    19     8    10   am
    20    10    11    1
    21    10    35    1
    22    11    21   ar
    23    11    12   ar
    24    12    13   ar
    25    12    36    1
    26    13    14   ar
    27    13    37    1
    28    14    20   ar
    29    14    15    1
    30    15    16    1
    31    16    17    1
    32    16    18    1
    33    16    19    1
    34    19    20    1
    35    20    21   ar
    36    21    38    1
    37    22    23    1
    38    22    39    1
    39    22    40    1
    40    23    24    1
    41    23    25    1
    42    25    26    1
    43    25    27    1
@<TRIPOS>SUBSTRUCTURE
     1 ZINC000793092912        1 TEMP              0 ****  ****    0 ROOT


##########                                Name:    ZINC001220212140
##########                DOCK_Rotatable_Bonds:                   6
##########                         Heavy_Atoms:                  28
##########                    Molecular_Weight:             379.459
##########                DOCK_Rotatable_Bonds:                   6
##########                       Formal_Charge:         -0.00999925
##########                     HBond_Acceptors:                   6
##########                        HBond_Donors:                   1
##########                         Heavy_Atoms:                  28
##########                          Grid_Score:          -21.320793
##########                     Grid_vdw_energy:          -21.410124
##########                      Grid_es_energy:            0.089331
##########           Internal_energy_repulsive:          170.787445

@<TRIPOS>MOLECULE
ZINC001220212140
 53 56 1 0 0
SMALL
USER_CHARGES


@<TRIPOS>ATOM
      1 C1        -14.4541   -1.4650   57.2294 C.3     1  ZINC001220212140   -0.1700
      2 C2        -15.0611   -2.0472   58.5075 C.3     1  ZINC001220212140    0.0800
      3 H3        -15.7831   -2.8282   58.2693 H       1  ZINC001220212140    0.1200
      4 C4        -13.9541   -2.5908   59.4416 C.3     1  ZINC001220212140   -0.1100
      5 C5        -13.6828   -1.3957   60.3350 C.ar    1  ZINC001220212140   -0.1500
      6 C6        -12.6454   -1.0990   61.1898 C.ar    1  ZINC001220212140   -0.0700
      7 C7        -12.6490    0.0984   61.8950 C.ar    1  ZINC001220212140    0.1400
      8 N8        -11.5954    0.4062   62.7663 N.am    1  ZINC001220212140   -0.6800
      9 C9        -10.6648    1.3117   62.4052 C.2     1  ZINC001220212140    0.7200
     10 O10       -10.7394    1.8617   61.3233 O.2     1  ZINC001220212140   -0.5700
     11 N11        -9.6516    1.6077   63.2431 N.am    1  ZINC001220212140   -0.6300
     12 C12        -9.4413    1.0205   64.5745 C.3     1  ZINC001220212140    0.0900
     13 C13        -8.1484    1.6372   65.1483 C.3     1  ZINC001220212140   -0.1100
     14 C14        -7.3967    2.1136   63.8773 C.3     1  ZINC001220212140   -0.1300
     15 H15        -6.8488    1.2918   63.4163 H       1  ZINC001220212140    0.1200
     16 C16        -6.4751    3.2632   64.1937 C.2     1  ZINC001220212140    0.5300
     17 O17        -6.8552    4.4049   64.0412 O.2     1  ZINC001220212140   -0.5100
     18 N18        -5.2285    3.0227   64.6462 N.am    1  ZINC001220212140   -0.5700
     19 C19        -4.7695    1.6438   64.8304 C.3     1  ZINC001220212140    0.0700
     20 C20        -4.3729    4.0902   64.9399 C.ar    1  ZINC001220212140    0.1400
     21 C21        -4.8089    5.3980   64.7723 C.ar    1  ZINC001220212140   -0.1100
     22 C22        -3.9619    6.4494   65.0631 C.ar    1  ZINC001220212140   -0.1100
     23 C23        -2.6808    6.2010   65.5205 C.ar    1  ZINC001220212140   -0.1200
     24 C24        -2.2435    4.8999   65.6880 C.ar    1  ZINC001220212140   -0.1100
     25 C25        -3.0877    3.8441   65.4053 C.ar    1  ZINC001220212140   -0.1200
     26 C26        -8.5669    2.5692   62.9739 C.3     1  ZINC001220212140    0.1400
     27 C27       -13.7019    0.9879   61.7310 C.ar    1  ZINC001220212140   -0.1100
     28 C28       -14.7411    0.6854   60.8763 C.ar    1  ZINC001220212140   -0.1200
     29 C29       -14.7441   -0.5146   60.1701 C.ar    1  ZINC001220212140    0.0900
     30 O30       -15.6713   -1.0133   59.2983 O.3     1  ZINC001220212140   -0.3000
     31 H31       -13.7453   -0.6788   57.4892 H       1  ZINC001220212140    0.0600
     32 H32       -13.9379   -2.2528   56.6807 H       1  ZINC001220212140    0.0800
     33 H33       -15.2467   -1.0487   56.6077 H       1  ZINC001220212140    0.0700
     34 H34       -14.3170   -3.4378   60.0237 H       1  ZINC001220212140    0.0900
     35 H35       -13.0642   -2.8626   58.8740 H       1  ZINC001220212140    0.0900
     36 H36       -11.8294   -1.7960   61.3120 H       1  ZINC001220212140    0.1400
     37 H37       -11.5358   -0.0325   63.6294 H       1  ZINC001220212140    0.4100
     38 H38       -10.2850    1.2590   65.2223 H       1  ZINC001220212140    0.0700
     39 H39        -9.3305   -0.0605   64.4896 H       1  ZINC001220212140    0.0700
     40 H40        -8.3790    2.4808   65.7989 H       1  ZINC001220212140    0.1000
     41 H41        -7.5662    0.8856   65.6815 H       1  ZINC001220212140    0.0900
     42 H42        -4.3072    1.2887   63.9094 H       1  ZINC001220212140    0.0700
     43 H43        -4.0403    1.6087   65.6398 H       1  ZINC001220212140    0.0800
     44 H44        -5.6192    1.0081   65.0790 H       1  ZINC001220212140    0.0800
     45 H45        -5.8092    5.5926   64.4145 H       1  ZINC001220212140    0.1200
     46 H46        -4.3005    7.4667   64.9330 H       1  ZINC001220212140    0.1300
     47 H47        -2.0202    7.0249   65.7468 H       1  ZINC001220212140    0.1300
     48 H48        -1.2420    4.7092   66.0447 H       1  ZINC001220212140    0.1300
     49 H49        -2.7456    2.8283   65.5363 H       1  ZINC001220212140    0.1200
     50 H50        -8.2733    2.5312   61.9249 H       1  ZINC001220212140    0.0900
     51 H51        -8.8844    3.5764   63.2436 H       1  ZINC001220212140    0.0700
     52 H52       -13.7074    1.9207   62.2754 H       1  ZINC001220212140    0.1300
     53 H53       -15.5567    1.3828   60.7542 H       1  ZINC001220212140    0.1300
@<TRIPOS>BOND
     1     1     2    1
     2     1    31    1
     3     1    32    1
     4     1    33    1
     5     2     3    1
     6     2    30    1
     7     2     4    1
     8     4     5    1
     9     4    34    1
    10     4    35    1
    11     5    29   ar
    12     5     6   ar
    13     6     7   ar
    14     6    36    1
    15     7     8    1
    16     7    27   ar
    17     8     9   am
    18     8    37    1
    19     9    10    2
    20     9    11   am
    21    11    26    1
    22    11    12    1
    23    12    13    1
    24    12    38    1
    25    12    39    1
    26    13    14    1
    27    13    40    1
    28    13    41    1
    29    14    15    1
    30    14    16    1
    31    14    26    1
    32    16    17    2
    33    16    18   am
    34    18    19    1
    35    18    20    1
    36    19    42    1
    37    19    43    1
    38    19    44    1
    39    20    25   ar
    40    20    21   ar
    41    21    22   ar
    42    21    45    1
    43    22    23   ar
    44    22    46    1
    45    23    24   ar
    46    23    47    1
    47    24    25   ar
    48    24    48    1
    49    25    49    1
    50    26    50    1
    51    26    51    1
    52    27    28   ar
    53    27    52    1
    54    28    29   ar
    55    28    53    1
    56    29    30    1
@<TRIPOS>SUBSTRUCTURE
     1 ZINC001220212140        1 TEMP              0 ****  ****    0 ROOT


##########                                Name:     oleObject79.pdb
##########                DOCK_Rotatable_Bonds:                  12
##########                         Heavy_Atoms:                  53
##########                    Molecular_Weight:             725.376
##########                DOCK_Rotatable_Bonds:                  12
##########                       Formal_Charge:          0.00050066
##########                     HBond_Acceptors:                   8
##########                        HBond_Donors:                   4
##########                         Heavy_Atoms:                  53
##########                          Grid_Score:            3.181261
##########                     Grid_vdw_energy:            3.830929
##########                      Grid_es_energy:           -0.649668
##########           Internal_energy_repulsive:           89.610313

@<TRIPOS>MOLECULE
oleObject79.pdb
 102 108 1 0 0
SMALL
NO_CHARGES


@<TRIPOS>ATOM
      1 C          -8.2569   -0.8655   59.2273 C.ar    1  UNL        -0.0620
      2 C          -9.5626   -0.9170   58.7200 C.ar    1  UNL        -0.0590
      3 C         -10.2066    0.2502   58.2648 C.ar    1  UNL        -0.0456
      4 C          -9.5258    1.4955   58.3167 C.ar    1  UNL        -0.0185
      5 C          -8.2112    1.5263   58.8306 C.ar    1  UNL        -0.0565
      6 C          -7.5805    0.3585   59.2828 C.ar    1  UNL        -0.0619
      7 C         -10.1578    2.7971   57.7830 C.3     1  UNL         0.0931
      8 C          -9.3142    4.0678   57.9969 C.ar    1  UNL         0.0683
      9 C          -8.5469    4.6299   56.9446 C.ar    1  UNL        -0.0272
     10 C          -7.7980    5.7926   57.2072 C.ar    1  UNL        -0.0559
     11 C          -7.8358    6.3554   58.4909 C.ar    1  UNL        -0.0435
     12 C          -8.6230    5.7358   59.4723 C.ar    1  UNL         0.0272
     13 N          -9.3412    4.6234   59.2310 N.ar    1  UNL        -0.2587
     14 C          -8.5070    4.0182   55.5480 C.3     1  UNL        -0.0379
     15 N         -10.6720    2.6203   56.3961 N.am    1  UNL        -0.2918
     16 C         -11.7105    3.4233   55.9194 C.2     1  UNL         0.2179
     17 O         -11.9173    3.5082   54.7202 O.2     1  UNL        -0.2772
     18 C         -12.2774    4.4823   56.9030 C.3     1  UNL         0.0361
     19 C         -13.2748    3.8859   57.9372 C.3     1  UNL        -0.0412
     20 C         -14.6609    3.5242   57.3353 C.3     1  UNL        -0.0453
     21 C         -15.3256    4.6703   56.5157 C.3     1  UNL        -0.0139
     22 C         -16.5109    4.0735   55.7074 C.3     1  UNL         0.0171
     23 N         -17.2490    5.1313   54.9878 N.pl3   1  UNL        -0.3290
     24 C         -17.8534    6.1486   55.8701 C.3     1  UNL         0.0115
     25 C         -16.7730    6.8112   56.7571 C.3     1  UNL        -0.0368
     26 C         -15.8948    5.7595   57.4805 C.3     1  UNL        -0.0446
     27 C         -17.5348    5.0299   53.6222 C.ar    1  UNL         0.0476
     28 C         -16.7792    5.7901   52.7083 C.ar    1  UNL        -0.0375
     29 C         -17.0498    5.7431   51.3321 C.ar    1  UNL        -0.0388
     30 C         -18.0980    4.9515   50.8381 C.ar    1  UNL         0.0318
     31 C         -18.8463    4.1754   51.7420 C.ar    1  UNL        -0.0202
     32 C         -18.5769    4.2144   53.1206 C.ar    1  UNL         0.0636
     33 CL        -19.6258    3.2711   54.1652 Cl      1  UNL        -0.0822
     34 N         -18.3375    4.9301   49.4656 N.pl3   1  UNL        -0.3149
     35 C         -17.5106    4.6184   48.3877 C.ar    1  UNL         0.0302
     36 C         -17.8031    5.0293   47.0741 C.ar    1  UNL        -0.0402
     37 C         -16.9320    4.7190   46.0177 C.ar    1  UNL        -0.0525
     38 C         -15.7347    3.9940   46.2386 C.ar    1  UNL        -0.0182
     39 C         -15.4468    3.6043   47.5702 C.ar    1  UNL        -0.0525
     40 C         -16.3164    3.9196   48.6270 C.ar    1  UNL        -0.0402
     41 C         -14.8026    3.6609   45.1099 C.ar    1  UNL        -0.0177
     42 C         -15.0870    4.0590   43.7787 C.ar    1  UNL        -0.0439
     43 C         -14.2228    3.7514   42.7053 C.ar    1  UNL         0.0111
     44 C         -13.0442    3.0251   42.9740 C.ar    1  UNL        -0.0518
     45 C         -12.7397    2.6212   44.2818 C.ar    1  UNL        -0.0609
     46 C         -13.6075    2.9359   45.3375 C.ar    1  UNL        -0.0543
     47 C         -14.5267    4.1611   41.4031 C.2     1  UNL         0.1014
     48 N         -13.7620    3.9015   40.4070 N.3     1  UNL        -0.2892
     49 N         -15.6426    4.8562   41.1439 N.3     1  UNL        -0.2870
     50 C         -14.2854    5.2603   55.5131 C.3     1  UNL        -0.0453
     51 C         -12.9525    5.6728   56.1733 C.3     1  UNL        -0.0412
     52 C         -10.0294    1.5978   55.5417 C.3     1  UNL         0.0037
     53 C         -11.6189    0.1162   57.7054 C.3     1  UNL        -0.0394
     54 H          -7.7684   -1.7715   59.5726 H       1  UNL         0.0623
     55 H         -10.0751   -1.8737   58.6751 H       1  UNL         0.0626
     56 H          -7.6685    2.4644   58.8802 H       1  UNL         0.0627
     57 H          -6.5679    0.4034   59.6726 H       1  UNL         0.0623
     58 H         -11.0400    2.9805   58.3984 H       1  UNL         0.0626
     59 H          -7.1967    6.2543   56.4292 H       1  UNL         0.0627
     60 H          -7.2690    7.2527   58.7206 H       1  UNL         0.0639
     61 H          -8.6818    6.1413   60.4817 H       1  UNL         0.0840
     62 H          -8.1058    2.9978   55.5729 H       1  UNL         0.0280
     63 H          -7.8713    4.6008   54.8697 H       1  UNL         0.0280
     64 H          -9.5083    3.9794   55.1017 H       1  UNL         0.0280
     65 H         -11.4224    4.8704   57.4698 H       1  UNL         0.0401
     66 H         -13.4223    4.6160   58.7431 H       1  UNL         0.0275
     67 H         -12.8350    2.9977   58.4089 H       1  UNL         0.0275
     68 H         -15.3311    3.2051   58.1439 H       1  UNL         0.0273
     69 H         -14.5494    2.6455   56.6893 H       1  UNL         0.0273
     70 H         -17.1956    3.5535   56.3902 H       1  UNL         0.0474
     71 H         -16.1233    3.3303   54.9982 H       1  UNL         0.0474
     72 H         -18.5974    5.6653   56.5163 H       1  UNL         0.0468
     73 H         -18.3762    6.9160   55.2861 H       1  UNL         0.0468
     74 H         -17.2554    7.4611   57.4977 H       1  UNL         0.0283
     75 H         -16.1394    7.4609   56.1418 H       1  UNL         0.0283
     76 H         -16.5164    5.2701   58.2418 H       1  UNL         0.0273
     77 H         -15.0910    6.2670   58.0262 H       1  UNL         0.0273
     78 H         -15.9683    6.4187   53.0646 H       1  UNL         0.0644
     79 H         -16.4510    6.3384   50.6486 H       1  UNL         0.0643
     80 H         -19.6419    3.5323   51.3791 H       1  UNL         0.0659
     81 H         -19.2870    5.1640   49.2053 H       1  UNL         0.1528
     82 H         -18.6965    5.6075   46.8652 H       1  UNL         0.0643
     83 H         -17.2010    5.0378   45.0155 H       1  UNL         0.0630
     84 H         -14.5295    3.0695   47.7956 H       1  UNL         0.0630
     85 H         -16.0622    3.6129   49.6378 H       1  UNL         0.0643
     86 H         -15.9925    4.6239   43.5799 H       1  UNL         0.0637
     87 H         -12.3513    2.7805   42.1736 H       1  UNL         0.0630
     88 H         -11.8292    2.0620   44.4779 H       1  UNL         0.0623
     89 H         -13.3559    2.5959   46.3372 H       1  UNL         0.0629
     90 H         -12.7861    3.8450   40.7059 H       1  UNL         0.1889
     91 H         -15.6269    5.8738   41.1807 H       1  UNL         0.1258
     92 H         -16.2270    4.5892   40.3537 H       1  UNL         0.1258
     93 H         -14.6970    6.1213   54.9748 H       1  UNL         0.0273
     94 H         -14.0717    4.5070   54.7462 H       1  UNL         0.0273
     95 H         -13.1319    6.4830   56.8901 H       1  UNL         0.0275
     96 H         -12.2874    6.0965   55.4137 H       1  UNL         0.0275
     97 H         -10.7788    0.9272   55.1068 H       1  UNL         0.0433
     98 H          -9.3230    0.9837   56.1119 H       1  UNL         0.0433
     99 H          -9.4845    2.0952   54.7299 H       1  UNL         0.0433
    100 H         -12.0039   -0.9057   57.8112 H       1  UNL         0.0280
    101 H         -11.6429    0.3640   56.6367 H       1  UNL         0.0280
    102 H         -12.3166    0.7821   58.2285 H       1  UNL         0.0280
@<TRIPOS>BOND
     1     1     2   ar
     2     1     6   ar
     3     1    54    1
     4     2     3   ar
     5     2    55    1
     6     3     4   ar
     7     3    53    1
     8     4     5   ar
     9     4     7    1
    10     5     6   ar
    11     5    56    1
    12     6    57    1
    13     7     8    1
    14     7    15    1
    15     7    58    1
    16     8     9   ar
    17     8    13   ar
    18     9    10   ar
    19     9    14    1
    20    10    11   ar
    21    10    59    1
    22    11    12   ar
    23    11    60    1
    24    12    13   ar
    25    12    61    1
    26    14    62    1
    27    14    63    1
    28    14    64    1
    29    15    16   am
    30    15    52    1
    31    16    17    2
    32    16    18    1
    33    18    19    1
    34    18    51    1
    35    18    65    1
    36    19    20    1
    37    19    66    1
    38    19    67    1
    39    20    21    1
    40    20    68    1
    41    20    69    1
    42    21    22    1
    43    21    26    1
    44    21    50    1
    45    22    23    1
    46    22    70    1
    47    22    71    1
    48    23    24    1
    49    23    27    1
    50    24    25    1
    51    24    72    1
    52    24    73    1
    53    25    26    1
    54    25    74    1
    55    25    75    1
    56    26    76    1
    57    26    77    1
    58    27    28   ar
    59    27    32   ar
    60    28    29   ar
    61    28    78    1
    62    29    30   ar
    63    29    79    1
    64    30    31   ar
    65    30    34    1
    66    31    32   ar
    67    31    80    1
    68    32    33    1
    69    34    35    1
    70    34    81    1
    71    35    36   ar
    72    35    40   ar
    73    36    37   ar
    74    36    82    1
    75    37    38   ar
    76    37    83    1
    77    38    39   ar
    78    38    41    1
    79    39    40   ar
    80    39    84    1
    81    40    85    1
    82    41    42   ar
    83    41    46   ar
    84    42    43   ar
    85    42    86    1
    86    43    44   ar
    87    43    47    1
    88    44    45   ar
    89    44    87    1
    90    45    46   ar
    91    45    88    1
    92    46    89    1
    93    47    48    1
    94    47    49    1
    95    48    90    1
    96    49    91    1
    97    49    92    1
    98    50    51    1
    99    50    93    1
   100    50    94    1
   101    51    95    1
   102    51    96    1
   103    52    97    1
   104    52    98    1
   105    52    99    1
   106    53   100    1
   107    53   101    1
   108    53   102    1
@<TRIPOS>SUBSTRUCTURE
     1 UNL         1 TEMP              0 ****  ****    0 ROOT

